100
TIME:    8.236, STEP:  8236
H   60.354973   66.740685   91.605728
H   73.018387   51.161877   97.410843
H   21.340212   66.434769   26.661743
H   82.858994   93.326408   88.719429
H   21.397432   32.908970   42.392792
H    0.297484   92.285423   94.384529
H   21.321796   17.471514   34.519093
H   72.552933    1.121347   51.992279
H   51.171272   94.434753   81.660721
H   49.805519   34.641758   30.193253
H   34.162369   97.636124   46.416039
H   41.496857   36.518566    6.681951
H   18.567482   63.470695    6.636372
H   47.283440   79.690224   84.003319
H   80.640450   34.352707   54.830589
H   70.371429   91.378197   49.381134
H   61.816902   26.718372   23.143927
H   77.186691   94.075371   14.026258
H   73.541626   23.863186   97.267456
H   70.621872   30.913588   77.077797
H   75.540810   36.297680   33.705135
H   51.973682   55.017395   17.906769
H   75.779732   27.641413   96.707809
H   53.815353   35.354706   95.396561
H   35.016914   33.004387   97.364662
H    8.773983   83.306198   15.837788
H   51.880013    0.115083   63.386654
H   37.612000   40.868336   39.010857
H   90.254448   96.326645   67.851952
H   16.798195   86.998215   38.126556
H   40.194096   60.592857   57.772972
H   85.783440   24.960339   36.816277
H   50.490253   65.897408   39.760880
H   26.092926   18.942329   24.781263
H   75.984352   36.089226   26.136854
H   88.579361   30.508406   93.533577
H   69.737816    2.914098   57.429897
H   23.583717    8.227629    3.633912
H   97.426506    1.970216   46.182518
H   87.454208   41.156677   86.026123
H   72.379379   38.778984   36.381069
H    6.128675   73.900635    0.423632
H   82.166229   12.893135   96.368874
H   53.446644   50.884705   86.007599
H   42.243637    6.943725   60.887840
H   71.812279   20.002289   16.620947
H    6.082120   72.739693    4.523051
H   56.690304   80.198120   78.174568
H    5.778950   50.343918   15.936081
H   98.656982   56.090626    7.670805
H   42.936069   74.510750   40.247131
H    5.397885   99.498779   33.394928
H   79.708839   69.763855   24.538122
H   85.965271   72.829086   95.249039
H   85.032051   80.368866   70.397369
H    3.853687    3.870251   12.253922
H   18.379166   51.900215   39.299660
H   12.786471   99.098305    1.413602
H   39.830624   86.768730   79.208862
H   15.528504   60.835636   29.359154
H   79.233627   95.559937   72.251869
H    6.606209   51.282547   22.701157
H   33.202290   45.273468   68.703217
H    8.590729   86.628021    3.529776
H   59.225815    3.047904   62.551804
H   95.398567   32.837273   33.160954
H   26.779108   33.102703   64.696274
H   11.448994   88.562553   59.931030
H   67.384827   57.999901   43.685760
H   97.293617   62.315456   84.375183
H   60.501682   35.023743   63.356819
H   95.053131   78.132225   59.740482
H   69.988480   10.926004   50.580410
H   48.900249   28.163757   13.798594
H   59.207397   40.442280   25.760580
H   20.360117   35.422981   41.750885
H   14.787219   12.953209   36.808334
H   18.920557   12.191952   69.285828
H   56.457809   29.326992    9.570032
H   95.624657   60.365593   11.382404
H   72.048531   14.487557   72.237396
H   59.318146   97.882217   97.980721
H   38.819771   44.853184   14.297650
H   16.773426   16.931433   11.186464
H   51.305740   33.709347   49.365135
H   61.743313   11.575057   13.716186
H   17.218676    4.527935   16.267586
H   88.486565   46.021538   10.183487
H   26.605701   35.604424   60.830940
H   38.165737   70.426285   18.634661
H   61.073750   18.151943    7.391352
H   87.679497   14.905470   90.456627
H   13.396872   74.639641   55.907104
H   43.243141   12.841420   82.139641
H   14.195389   11.998360    5.341624
H   74.181412   70.501404   42.048927
H    8.867662   40.325737   63.528801
H   22.379930   93.977440   13.543039
H   16.368767   72.367241   55.186916
H   50.779987   67.281906    4.339530
