100
TIME:    6.512, STEP:  6512
H   76.942459   24.838793   93.184097
H   20.629875   57.741070   88.707924
H   91.702209   42.402931   46.902592
H   82.569626   64.355988   83.218262
H   36.843658   94.722946   89.138824
H   27.035778   94.153160   23.651096
H   11.676866    1.058059   99.699959
H    8.055939   51.971951   10.283029
H   93.550484   60.191147   90.179512
H   96.893532    9.886854   62.688877
H   94.524658   28.266806   12.481052
H    7.294472   50.103458   29.397320
H   28.522568   67.796989   77.956474
H   32.645027   85.004066   52.807018
H   59.700752   88.348900   37.740292
H   39.691040   42.165749   92.487793
H    0.450700   12.689750   66.201393
H   40.323322   77.965210   73.784706
H   46.691525   51.541145    6.440618
H   17.073708   67.520058   59.699852
H   77.845413    7.926549   80.495262
H   86.692123   52.728760   64.721329
H   98.797615   41.660545   46.035049
H   13.998913   14.730684   23.435373
H   96.678535   69.726608   84.632484
H   16.860952   34.148544   78.057503
H    0.541447   71.782425   29.175505
H   83.077927   60.397850   82.025497
H   52.768181   39.911297   49.345978
H   50.691761   29.668022    1.074375
H   72.345100    5.999688   94.170296
H   76.928955   72.589996   96.415627
H   29.053265   92.033836   84.449341
H   53.249550   76.936813   97.411896
H   18.890625   66.620277   21.245996
H   38.714352   95.476173   98.952644
H    4.384925   66.051880   21.585302
H   94.840401   39.781048   81.975105
H   70.200317   39.530144   13.251234
H   49.835407    2.551178   50.385624
H   90.202957   79.624886   95.765602
H   51.418121   67.139954   12.409528
H   67.329559    2.551414   71.841881
H   63.528942   21.946432   17.444830
H   91.788048   74.960556   13.359588
H   94.067284   87.123276    9.616934
H   92.609665   78.982437   87.973595
H   56.587193   62.441467   71.503586
H   55.379944   93.126625   84.708023
H   62.460278   29.849699   28.212511
H   43.054447   40.952240   22.073174
H   21.606953   59.475258   46.564003
H   43.951405   59.767517   24.661474
H   25.889473    0.950711   19.172756
H   22.299973   29.285206   55.737431
H    1.706447    5.683731   70.942947
H    9.085258    1.645231   75.332802
H   41.158356   61.909523   45.821884
H    3.865285   13.918044   11.556919
H   29.294098   28.322048   78.393822
H   70.482536   75.732559    6.669926
H   67.794319   67.329300    0.705178
H   16.159708   62.915932   86.923065
H   90.207016   77.236725   50.340855
H   90.795013   40.741657    2.002819
H    1.305101   18.542107   31.224104
H   65.098557   73.497406   81.461197
H   30.537514   89.965065   77.513855
H   81.459633   81.875549   51.812359
H   62.313828   75.677666   88.020721
H   15.246742   52.324844   84.033455
H   37.023022   35.404510   33.399681
H   82.396347   96.197357   94.778870
H   86.854790   37.274914   16.232664
H   76.139763   37.925350   95.051407
H   79.606361   24.930485   57.753395
H   58.211514   62.171612    6.232878
H   37.925930   24.916162   74.074013
H   73.786034   34.390926   90.335289
H   80.170639   54.280373   59.906548
H   38.302422   96.651291   69.196075
H   29.952555   86.702103   42.210430
H   29.773605   16.021643   50.113953
H   98.165245   69.405052   68.645683
H   35.249382   41.556259   16.486877
H    1.414156   48.251671   93.996124
H    2.076484   29.877342   34.060738
H   60.759880   83.977295   28.058517
H   90.824814   31.593924   74.931038
H   90.590286   41.355343   57.003479
H   90.520500   25.061508   70.983322
H   60.120953   85.244217   57.602806
H    2.885327   22.911297   22.587534
H   76.626228    8.248498   65.893158
H   44.004189   66.425278   65.725006
H   31.786118   38.579254   31.095840
H   45.710167   41.389893   62.678284
H   25.707659    8.673326   48.152290
H   98.496574   64.922600   99.588005
H   43.695904   11.526852   70.419579
