100
TIME:    7.688, STEP:  7688
H   97.414543   16.994743   92.107437
H   88.153275   21.464886   62.859676
H   11.920626   27.009068   33.094425
H   82.767014   15.904789   18.756832
H   26.307909   88.984444   57.251740
H    8.796247   92.879112   40.114502
H   50.041233   80.468536   91.664764
H   15.624657   53.710827    2.306476
H   64.642159   47.123581   16.154285
H   64.773170   26.773287    8.734741
H   85.136002   75.586014   99.202789
H   62.413940    9.050264   45.688484
H   53.511513   96.641953   61.093662
H   74.417534   81.379311   42.300762
H   73.984444   83.302780   81.185577
H   92.404816   39.308472   94.869415
H    5.883801   90.472626   73.257324
H   65.471786   20.740723   33.021996
H   65.004211    0.872528   68.394104
H   85.388840   42.549252   39.767372
H    8.059891   90.852295   48.576626
H   99.436386   54.289917   64.574066
H   83.096321   32.096214   12.387046
H    4.731504   28.799044   36.095901
H   54.617012   76.463730   93.317543
H   11.357784   99.461227   67.408363
H   99.133713   22.895346   52.512112
H   83.850456   15.289542   20.896261
H   78.338860   46.607288   93.756859
H   95.785873    0.561121   94.562950
H   18.626085   11.453867    1.128982
H   51.182247   40.099407   87.547417
H   11.888906    5.992075   90.392708
H    2.937556   69.163399   47.867584
H   89.622475   77.580559   92.795425
H   40.942097   87.585693   95.256111
H   17.178574   22.984533   14.249522
H   46.232475   18.256817   64.960854
H   20.558430   13.908800   99.288414
H   39.069809   92.458282   42.910553
H    9.831514   19.977438   23.470427
H   52.311211   71.751648   72.445030
H   77.450165    9.605896   56.784794
H   88.439102   41.685204   32.427540
H   89.778725   28.563358   13.992878
H   78.886375    9.552108   14.394613
H    1.798257   42.938179   99.260582
H   56.656857   74.553894   44.267406
H   89.759041   95.730598   37.796516
H   87.151123   47.749714   45.987724
H   42.973698   27.417040   34.469116
H   78.765182   50.349873   69.367462
H   68.345131   66.586365   56.363686
H   98.658508   81.767868   71.066666
H   28.665291   32.344200   65.739838
H    3.171154    4.446693   30.909134
H   83.637573   67.712410   87.180153
H   53.591232   50.850807   15.529441
H   96.609871   63.614788   21.278221
H   51.689194   18.712986   44.945580
H   44.665874   21.044373   14.979642
H   26.055794   56.383255   47.497337
H   95.998543   82.667511    6.281219
H   70.961967   83.642853   18.408909
H   37.472549   46.816898   11.518802
H   29.061462   60.080070    0.758429
H   70.745789   14.157141   38.239483
H   49.303062   57.222466   33.733459
H   40.071472   97.375694   78.055298
H   86.164040   34.792538   85.537476
H   77.903465   72.310608   69.929207
H   40.179264   96.327538   19.573851
H    5.718660   38.032459   64.632385
H   60.962170   62.844624   46.358337
H   32.809143   39.635365   84.211090
H    7.404151    0.300945   78.623970
H   65.017296   60.385612   27.088778
H   93.176544   48.022335   39.019505
H   30.180799   30.936642    3.454409
H   22.498283   90.217278   58.593117
H   61.320320    8.818246   39.484161
H   18.198212   94.328445   43.825947
H    4.157445   35.688633   62.110336
H   79.070930   70.037964   61.236217
H   77.988297   67.989098    2.487704
H   74.353683   91.446960   75.661209
H   80.618919   44.372246   90.136787
H   79.673210   89.872620   15.865341
H   15.231542   66.116692   65.312874
H   86.616333   92.969742   99.045563
H   38.647358   88.561501   95.818283
H   47.133045   73.690536   80.012718
H   78.269165   58.198833   13.529422
H   90.281624   79.594933   45.188778
H   23.671417   61.086403   92.749176
H   28.918900   92.141785   70.353676
H   52.364891    8.878245   95.044487
H   23.437700   66.860069   24.545099
H   42.474358   70.000847    1.085828
H   16.743212   81.346481   57.131626
