200
TIME:    0.258, STEP:   258
H   10.024264   62.415257   15.647366
H   28.124720   33.140945   90.627907
H   17.760414   69.926010   46.234795
H   18.449261   77.184151   44.028999
H   15.019032   84.185455   53.399704
H   89.033020   52.326447   65.016594
H    3.620016   55.291359   49.999767
H    3.291997   89.663666   24.433407
H   88.159477   87.236374   47.280308
H   10.227566   74.646751   95.362465
H   12.821081   94.978706   93.530487
H   30.852234   42.503288   13.599948
H   11.615962   87.605263   60.553947
H    3.552860   53.282879   43.133175
H   18.752817   72.083153   42.934303
H   28.775723   25.224720   53.934708
H   85.054184    8.561527   14.558121
H   36.134743   84.032349   43.199909
H   65.624313   29.050255   42.748810
H   90.113518   79.457481   36.772953
H   58.301094   77.656799   25.015812
H   89.628304   49.502388   69.881042
H   94.466194   62.410583   48.704308
H    8.989491   88.223289   91.529640
H    4.028834   13.427916   44.768063
H   18.646193   63.135052    6.362051
H   99.244301   59.157932   49.805588
H   94.923370   70.871971    0.778634
H   11.826718   55.982613   38.232964
H   92.236023   21.246542   98.003250
H   13.337992   52.201267   16.216820
H   31.598728   63.928207   94.046288
H   26.688377    9.372858   73.399017
H   95.830818   63.597557   38.604919
H   47.124638   89.057236   34.082172
H   32.473282   49.511543   79.682884
H   86.781097   74.040497   86.090065
H   32.024532   45.220928   14.358128
H   52.404068   45.756062   44.831741
H   89.910126   39.614468   62.993256
H   80.509666    4.382962    2.121740
H   14.235247   42.729439   39.297409
H   76.377762   87.368431   50.996662
H   37.241165   64.108131   19.392099
H   29.392000   76.844330   45.013481
H   40.806488   13.370050   42.883640
H   80.313354   25.330322   96.573692
H   89.677605   65.550331   47.000565
H   87.776489   28.069088   61.179310
H   61.473255   17.882734    4.950894
H   77.780045   70.268288   27.155376
H   20.450029   36.007793   63.928703
H   52.662155   93.907112    8.163713
H   22.138699   82.563553   81.969719
H   76.436996   75.984619   90.191216
H    5.074907   71.906624   79.237640
H    5.379114   16.813576   49.461506
H   67.605331   58.997837    4.978562
H   27.801344   74.825180    7.561836
H   42.686977   95.888100   66.661484
H   50.361221   15.025221   41.710602
H   90.260101   16.467524   49.204128
H   71.943207   25.579351   84.277649
H   24.562160   65.178017    4.069389
H   71.637726   76.347412   18.665651
H   38.033623   17.260439   33.186844
H   85.502785   22.782307   86.207008
H   97.240623   91.490852   87.627922
H   17.162748    6.096492   61.751976
H   45.133350   41.943714   50.981632
H   58.457268   76.903458   73.762817
H   31.634613   23.348700   44.638828
H   78.065079   25.974285   98.893021
H    8.451776    8.569047   61.096607
H   79.364212    1.162958   66.766357
H   53.768730   18.441113   62.759850
H   95.351501   30.620295   71.890968
H   25.888542    6.297709   47.352028
H   11.667408   30.495394   34.539791
H   68.004868   90.566559   93.407990
H   44.132061   29.797831    0.866440
H   27.427921   68.266563   87.300774
H   10.929486   13.863746   89.753059
H   24.087088   62.448189   94.438202
H   38.267235   99.514191   57.272087
H   25.174335   85.144531   27.408119
H   36.661957    2.821617    1.812589
H   75.181801   17.874418   12.121110
H   66.238480   72.095436   77.231834
H   23.353973   86.853966   54.667477
H   40.488266   35.048183   80.674423
H   83.930046   88.693390   98.760605
H   48.114773   16.659092   95.217178
H   59.220715   93.786964   69.598915
H   25.581005   56.682716   68.689461
H   68.526649   28.111740   28.215357
H   79.549767   13.656591   99.104446
H    6.399862   28.718414   48.763996
H   36.610039   69.597717   52.945038
H   67.517403   98.219894   27.254801
H   10.669332   80.924072   69.787392
H   91.241646   76.928894   65.765312
H   23.552519   36.512146   30.754395
H   22.740835   67.972717   90.877167
H   25.314878   27.236183   25.671116
H   88.135704   25.891607   43.048050
H   66.510979   30.320284   56.175461
H   64.645180   34.965485   18.045588
H   73.254005   39.862442    0.002983
H    4.944957   27.809420    5.625361
H   47.431366   95.910362    0.808515
H   86.716721   63.798004   90.716194
H   56.781410   80.483536   93.543846
H   63.163200   19.009289   74.489807
H   63.249580   82.718109   26.141529
H   13.303903    5.270723   79.746414
H   31.834873    8.696168   84.389938
H   40.679790   27.882458   33.618706
H   19.545931   58.389408   82.650040
H   71.257652   47.034115   50.014229
H   40.742439   21.879047   86.930000
H   17.512432   27.053623   48.717636
H   32.670357   21.063412   24.563120
H    3.812109   66.671043   17.076969
H   76.377769    8.506429   92.217812
H   48.381802   62.844959   25.183840
H   94.939217   49.273972   70.359604
H   75.034950   87.711143   35.154598
H   92.689232   51.832111   84.480064
H   68.617645   24.064030   66.808266
H   49.335564   84.542999    4.099224
H   81.009102   86.229904    9.751470
H   92.378975   83.470482   97.509048
H    0.037947   13.464468   49.928673
H    5.315298    1.044657   55.589752
H   61.878662    1.603749   83.416420
H   68.922516   86.610390   56.234734
H   91.371880   63.658932   82.913963
H   46.783722   44.585358   71.545830
H   43.457695    8.226628   94.957336
H   51.508785   62.539330   15.491378
H   56.409653   41.557739   46.666500
H   54.426865   57.092297   98.777115
H   56.888283   25.876102   78.422707
H   41.148022   69.170105   49.657139
H   46.599655   62.285889   28.984085
H   45.156975   96.698967   47.153011
H   42.160942   72.748665   68.721703
H   65.666473   64.040817   97.765518
H   10.035759   88.871315   89.323334
H   75.585762   61.615643   51.208309
H   34.545082    6.611652   47.588249
H   77.011948   31.165539    2.832681
H   10.385719    1.555906   75.507713
H   14.326305   54.354404   61.078888
H   64.036446   43.573536   54.614738
H   59.499676   61.423359   80.968918
H   46.301979   36.371094   10.145836
H   11.557983    1.666508    1.937415
H   63.477871   56.209381   78.931839
H   54.132759   83.678108   82.937294
H   42.758984   22.963020   35.388039
H   65.994164   33.785179   37.224567
H   11.935387   20.708447   70.428650
H   58.781837   22.699133   10.001408
H   12.223819   63.866566   62.203426
H   74.589882   97.275826   52.412518
H   23.647938   31.751526   48.757038
H   94.317543   28.111673   36.814430
H   27.294388   10.323878   90.200653
H   79.021118    5.847881   35.974564
H   45.541115   64.778595   57.513390
H   38.020729   76.680801   89.917557
H   71.002953   74.112793   74.660904
H   70.601257   94.901138   98.385063
H    1.463116   47.758080   23.304014
H   35.232830   53.483444   87.660942
H    1.889531    9.218025   65.110367
H   75.141243   20.961123   68.924316
H   85.444283   54.648186   86.638924
H   81.089188   85.834450   41.300789
H   19.590731   30.128017   70.273285
H   64.806503   90.147079    6.426287
H   51.872856   25.253675   77.852486
H   85.755737   87.553665   78.322678
H   99.637260   36.375656   84.044289
H   31.978762    4.216238   99.663956
H   89.556290   67.987007   26.156372
H    6.097111   61.253674   66.749130
H   49.940895   58.175396   65.930435
H   48.680157   30.428818   79.172920
H   47.505356   85.418365   24.395117
H    4.500296   17.952251   58.218544
H   34.789082   64.249496   33.676037
H   84.276901   53.451344   21.757404
H   75.372086   10.427614   29.319763
H    9.580928   86.050224    4.074323
H   28.386370   97.048439   46.459076
H   11.673276   11.662260   77.212044
H    7.819999   34.382931   97.498718
