100
TIME:    9.459, STEP:  9459
H   77.648590   54.586159   90.486038
H   39.241074   17.432690   74.526054
H   42.362392   54.422066   12.305784
H   83.064270   42.940361   21.682154
H   10.438467   30.937546    9.234035
H   81.337280   90.960457   15.501987
H   57.222523    0.053902   30.159298
H   76.427551    6.926260   39.700027
H   21.107597   76.847626    4.676454
H   16.399256   52.202229   78.078835
H   20.401886   46.844376   28.608480
H   94.816154   97.821587   19.626999
H   40.580688   89.448036   85.098083
H   86.728729   75.920601   77.074608
H   95.495003   25.108315   96.018089
H   21.197353   84.410141   47.861389
H   63.470497    7.610931   34.478439
H    3.342048   34.563850   71.629471
H   92.595016   75.170944   61.696789
H   37.673122    4.941446   60.345299
H    2.965829   14.544182    0.510185
H   69.223892   56.640945   13.757019
H   59.450920   17.699499   61.717499
H   40.180401   49.985321    4.566098
H   91.276962   36.014702    6.393718
H    3.005356   47.252182    0.747497
H   46.419136   49.278439   87.646835
H   34.418907   97.953857   79.437431
H   16.848217    7.286719   10.040401
H   63.693031   56.729263   35.351509
H   88.326714   70.261841   61.013123
H   63.004353   91.170425   23.597038
H   36.636726   76.417099   49.938377
H   77.767151    6.861812   73.258965
H   45.547447   43.490944    0.545048
H   94.892517   26.302374   89.689308
H   87.040100   58.126228   53.797504
H   73.032600   85.849815   89.936882
H   45.805508   75.321922   27.664753
H   72.260681   26.662964   82.249466
H   88.796204   80.743088   65.194420
H    3.060787   78.696640   62.857922
H   92.691315   20.230782   84.706078
H   75.360634   71.418312    5.585101
H   36.157860   58.701496   65.546341
H   56.029366   43.326763   21.589571
H   15.643813   39.252567   16.267855
H   56.764950   92.794632   53.846485
H   41.525124   49.055248   67.152679
H   24.327810   74.710838   22.159264
H   43.950779   56.521690   51.454620
H   64.836487   86.014191   53.111671
H    5.071144   76.855225   53.509575
H   57.639214   52.874741   49.215340
H   87.654915   87.546371   80.791824
H    5.376932    2.583774   70.620102
H   95.912201   16.611320   55.617088
H   21.719217   83.601067   69.912865
H   36.290432   38.446648   85.318092
H   34.822247   54.839283   94.574135
H   56.384670   38.683842   76.902382
H   63.199516   39.899033   67.367256
H   16.231762   61.817894   84.838440
H   92.572327   93.290176   70.330109
H    7.766070    5.367780   76.443993
H   20.268101   72.038719    5.474416
H   28.655586   75.382843   23.743011
H   26.968079   58.507881   18.397507
H   28.337130   70.122925   66.982147
H   22.132355   23.745852   81.781235
H   21.659016   51.808254   48.688881
H   94.341820   37.524803   49.386074
H   90.247543   50.428509   19.219761
H   21.981037   50.759266   41.131477
H   18.120325   42.243114   18.489187
H   49.276108   13.805530   59.457474
H   25.861992    7.099120   58.502327
H   76.373055   32.227425   36.835503
H   15.107781   25.734653   23.219820
H   35.646599   93.742226    6.019967
H   95.991234   27.140055   45.334969
H   51.091057    5.819337   95.664177
H   16.175806   65.306190   30.770428
H    0.913682   21.586403   99.484612
H   91.756897   57.201683   30.809633
H   33.592442   56.500496   98.644730
H   98.900063   15.605802   74.584770
H    8.155201   48.158058   97.504776
H   51.986332   67.510292   50.828377
H   30.035925   20.106743   62.350647
H   11.124367   84.188507   33.218895
H   78.169113    6.886920   13.759637
H   91.793747   11.330976   50.483574
H   60.341103   86.955368   66.291008
H   93.049194    2.449236   33.442299
H   75.196198   22.206392   78.879166
H   11.791635   10.511285   93.192017
H   20.019251   54.490620   88.987083
H   58.108055   77.648445   52.747913
H   26.746536   35.901623   86.524429
