100
TIME:    7.821, STEP:  7821
H   88.420158    4.798243   91.985672
H   84.480026   28.672367   71.245377
H   14.206766   36.577515   31.532940
H   82.789337   10.424850   11.466494
H   25.116133   99.644981   53.645462
H    6.733596   92.735023   53.286446
H   43.071194   89.448715    2.065544
H    5.171120   65.216728   90.095314
H   61.372765   34.336212    7.782422
H   61.140511   28.682970   13.942738
H   72.764664   80.937592   86.391068
H   57.337349   15.716652   36.221245
H   45.030571   88.591248   47.877071
H   67.832069   80.969368   52.422489
H   75.599861   71.422562   74.788849
H   87.057297   27.675842   83.829376
H   95.188637   99.270157   85.364838
H   68.315002   14.268974   28.411774
H   67.076248    6.452295   75.401688
H   81.804886   39.725315   48.822639
H    0.167504   77.612366   44.967304
H   12.187226   54.466476   53.247879
H   81.320580   31.014997    8.581632
H   92.374161   30.390108   26.218002
H   49.860054   65.916840   94.299782
H   10.730694   95.540390   54.892197
H   87.665466   17.366701   55.151371
H   72.627769   21.497534   25.292490
H   81.230782   58.674213   87.469719
H    0.885750   97.269363    5.136021
H   23.860464   23.380157   90.606453
H   59.579983   36.425144   75.234932
H   21.257322   96.261253    2.374401
H    8.557271   56.974709   42.264359
H   86.312492   67.510582    0.886806
H   52.503696   98.002701   94.838051
H   29.934994   18.113420   24.729399
H   40.735794   15.822548   74.346916
H   14.944091   11.011297   86.399574
H   26.542999   80.007797   53.375252
H    0.742153   24.540586   26.603849
H   41.102730   72.273209   79.235466
H   78.594757   10.403711   66.391304
H   79.945984   43.917564   45.431042
H   78.241478   23.316296   25.374367
H   77.169487   12.088374   14.934946
H    2.837954   50.171028    0.537427
H   56.664974   75.923752   52.496700
H   93.647408   84.714912   32.490601
H   89.943604   49.774059   36.687912
H   42.964565   14.576399   35.871445
H   85.228882   38.007961   60.636902
H   71.103111   67.357544   48.639717
H   95.577850   79.598419   76.935745
H   18.075275   44.000168   66.870224
H    3.336805    4.306790   26.381500
H   92.069809   63.874779   99.829521
H   43.687668   38.290733   12.103528
H    7.099656   69.234322   11.067707
H   42.912971   28.936184   41.162743
H   53.055492   14.859259    4.610072
H   21.335365   55.145309   41.479095
H    5.027759   73.591949   97.161011
H   80.094353   84.367355   14.797643
H   42.752083   36.193905   23.904852
H   20.891529   53.468224    8.622676
H   60.075104   18.755196   44.660564
H   40.115883   64.828728   40.091629
H   46.700569   87.819160   69.714386
H   88.865196   41.472370   85.255386
H   73.680244   63.261429   68.334084
H   29.227375   91.911522   29.322672
H   97.046814   31.454054   61.222004
H   58.034733   54.427608   38.455780
H   39.216019   39.831203   94.295273
H   10.548507    8.825127   69.674232
H   77.096397   48.873734   29.447470
H   99.425125   39.326275   46.364986
H   36.558250   30.545979    4.938675
H   15.976237   82.972252   47.135017
H   63.924065   10.194192   47.433395
H   28.178387   95.190948   32.699657
H   12.569989   37.912876   74.776093
H   88.221581   81.418945   49.089130
H   71.512421   59.669010   89.594856
H   71.293320   96.331772   84.897095
H   89.501686   34.702065   96.478722
H   81.812218   79.230347   14.486351
H   17.992058   58.711342   64.225105
H   74.857880   87.498428    3.799975
H   44.090260   95.743614   98.626999
H   56.973698   83.693542   82.547462
H   86.794754   62.189686   23.814516
H    3.135811   87.663902   54.156780
H   21.371578   49.172699   95.805481
H   39.904144   86.889648   63.484093
H   41.807854   16.510620   87.395607
H   23.180979   73.441475   21.874891
H   36.138512   70.575172   89.946251
H   25.003962   77.932999   44.318890
