100
TIME:    2.571, STEP:  2571
H   43.455719   86.247581   96.792191
H   29.753258   44.140701   40.177845
H   23.947966   58.871948   93.157433
H   81.908142   26.725607   99.237122
H   72.142838   78.834503   95.995087
H   88.151009   98.422737   33.360394
H   18.224709   34.944023   91.508400
H   17.810768   11.026703   72.133965
H   90.427849   39.102295   38.251705
H    4.582891   53.299110    8.365962
H   61.106873   69.692322   92.097824
H   57.714668   52.561554    9.922716
H   79.720528    6.158266   69.591759
H   27.780251   97.151314   52.895184
H   11.772945   40.374878   27.186205
H   98.149368   86.859955   19.626154
H   17.362766   52.021385    7.436623
H   56.085884   69.672874   10.412464
H   85.309303   86.209686   98.814011
H   23.252037   51.215153   91.378304
H   11.709839    0.265433   87.461716
H    8.864624   47.497025    0.333902
H   51.417473   73.712440   58.791168
H   80.167740   67.516815   16.128426
H   37.629509   82.269623   55.530968
H   34.870266   51.000278   48.191498
H   40.378639   35.603443   50.985088
H   15.608673   76.445305   51.756657
H   67.074646   82.353371   35.638969
H   99.577660   27.208023   87.776024
H   17.239550   52.601513    5.969611
H   28.091560   81.477425   61.253716
H   51.456005   80.375908   29.412939
H   86.731697   38.105881   63.438812
H   16.863270   64.572235   81.284187
H   96.092453   86.450188   11.801900
H   26.391693   10.379927   11.049983
H   57.725288   11.897449    3.870665
H   36.550423   25.398314   95.163574
H   21.034311   71.495506   40.315182
H   59.540302   44.399929    2.916809
H    0.554318   27.245659   23.588789
H   33.386364   78.917465   87.179436
H   15.183523   55.862076   32.113045
H   33.640652   30.452579   76.118263
H   44.918140   11.954670   93.609077
H   61.818478   64.657440   50.137741
H   56.376720   21.854177   27.656807
H   40.181923   19.519566   41.916199
H   79.806145   69.878716    3.846437
H   43.348469   21.430193   80.525055
H   30.077791   25.169224    5.279546
H   62.212471   36.916260   53.550835
H   17.156025   65.262627   45.267059
H   36.083183   83.892899   22.221571
H   96.783127    9.829952    5.103897
H   59.240650   15.362163    0.510834
H   34.614594   34.088715   47.333206
H   93.046684   47.400143   14.105780
H   89.359589   25.403440   90.485237
H   21.881384   59.006870   13.941031
H    7.663963    4.012390   79.025528
H   48.622593   31.830854   57.177658
H   19.584917   55.780098   57.340771
H   34.369068   55.503307   34.993210
H   43.404549   14.460854   98.202934
H   81.292152   37.248913   91.189590
H    2.769112   64.575439   89.111267
H   85.040489   65.050667   98.982887
H   82.472229   77.457588   96.319336
H   40.392296   20.468828   31.308910
H   61.975410   66.198593   44.858604
H   39.358078   91.134911   95.824455
H   73.611656   86.681641   50.406380
H   86.129662   32.302738   96.296738
H   86.437813   72.350700   22.934250
H    0.384661    3.709297   36.519337
H   52.770580   82.609688   56.428028
H   84.801407   45.966892   46.364632
H   73.438637   68.933273   99.427353
H   61.194660   55.879833   33.650852
H   34.228813   61.018143   71.791969
H   80.468369   50.170685   74.774963
H   27.031780   32.165375   28.597351
H   27.143433   88.066605   98.522926
H   92.118042    3.490686   20.321423
H   38.866005   16.420288   46.138565
H   97.343185   99.454117   69.008095
H    9.037786   51.022743    7.165792
H   39.027554    3.495720   16.125359
H   29.238556   12.258824   87.756546
H   68.519043   88.862602   82.511696
H   50.244068    4.670227   17.814739
H   95.724190   69.184151    0.168501
H   12.139282   19.434769   75.165855
H    6.275675   94.205879   34.653610
H   58.528366   15.224738   89.328804
H   16.304808   38.128204   14.898100
H   86.237053   47.932865   29.689758
H   98.909073   12.665028   50.061798
