100
TIME:    9.236, STEP:  9236
H   92.729401   75.036446   90.690201
H   45.399979    5.348294   60.465626
H   38.529240   38.378288   14.923744
H   83.026840   52.127678   33.905670
H   12.436708   13.063181   15.280226
H   84.794434   91.202049   93.417786
H   68.909843   84.996910   12.720409
H   93.954910   87.633408   60.175835
H   26.589363   98.288101   18.713533
H   22.490957   49.000278   69.347481
H   41.144806   37.871429   50.089653
H    3.326996   86.643684   35.499977
H   54.800613    2.946297    7.259593
H   97.770523   76.607948   60.104900
H   92.786446   45.027779    6.742490
H   30.164345    3.914554   66.372131
H   81.402779   92.860924   14.177870
H   98.572586   45.415092   79.360428
H   89.120850   65.816895   49.948933
H   43.680607    9.677168   45.162407
H   16.199379   36.744522    6.563334
H   47.844662   56.344910   32.747543
H   62.428291   19.512293   68.097580
H   60.901203   47.317596   21.128187
H   99.252914   53.700287    4.747657
H    4.057320   53.826218   21.732920
H   65.649406   58.549122   83.223312
H   53.234192   87.544968   72.067162
H   11.999005   87.054375   20.581146
H   55.142021   62.248459   17.624081
H   79.551125   50.265285   78.656174
H   48.923939   97.332733   44.241280
H   20.928116   92.733093   29.848776
H   68.345047   27.298309   82.653847
H   51.097267   60.375191   86.978394
H   75.507278    8.835412   90.390266
H   65.650665   66.292732   36.225910
H   82.250542   89.929665   74.199348
H   55.219105   80.180992   49.275192
H   93.265610   47.540291   64.705093
H    4.036770   73.090393   59.940639
H   21.854248   77.822144   51.474155
H   90.772186   18.892666   68.597649
H   89.597572   67.675331   83.780952
H   55.500565   67.498528   46.462383
H   58.906357   39.073376   20.683599
H   13.900350   27.123949   14.126328
H   56.751339   90.497803   40.048496
H   35.007233   67.523781   76.047363
H   19.647383   71.314934   37.751644
H   42.867405   77.967125   50.790955
H   53.998852    6.706400   67.750130
H    0.445649   75.562195   66.461563
H   62.802826   56.513939   39.374702
H    5.410447   68.004608   78.896515
H    5.099186    2.818348   78.211548
H   81.773941   23.045845   34.407997
H   38.323914    4.660589   75.656639
H   18.702469   29.023111    2.437246
H   49.537266   37.698132    0.916780
H   42.316166   49.053600   94.286827
H   71.114220   41.974686   77.456291
H    1.092174   77.034813    0.130218
H   77.260132   92.075409   76.383530
H   98.914841   23.179234   55.677250
H   33.966682   83.124748   92.288765
H   46.547195   67.672302   12.975986
H   42.372147   45.754524    7.736816
H   17.222178   86.146286   80.967285
H   17.603348   12.545700   82.254211
H   28.740906   66.982307   51.363411
H   12.705382   44.929100   33.041157
H    4.787393   61.458393   24.938015
H   26.889446   64.872108   54.381630
H    7.378819   41.914753    1.581468
H   44.003609   99.513298   74.462906
H    5.608405   26.400982   54.546677
H   65.896111   46.808037   24.519394
H    4.414411   26.389675   20.730738
H   46.582909    5.890204   25.231468
H   91.625557   24.833017   32.006554
H   34.358231    4.371696   14.320505
H    2.070633   61.576817    9.532414
H   85.570915    2.503456   19.851826
H    2.614944   71.151962   52.427002
H   38.725430   48.308472   83.158997
H   84.006401   31.819725   63.951302
H    4.568967   66.001869   99.815216
H   47.358646   79.926781   52.652229
H   49.752842   29.282150   54.379799
H    1.997897   72.146317   28.509544
H   61.669369   90.115204    9.511353
H   77.498962    4.639547   33.238640
H   39.888710   73.510361   49.566845
H   96.904465   22.424786   28.318430
H   56.777328   31.011755   90.397339
H   29.491783   97.714043    6.017033
H   20.449694   43.457333   93.465050
H   68.731316   76.685478   71.426414
H   12.895710   41.623280    8.006235
