100
TIME:    4.391, STEP:  4391
H   20.376785   19.344147   95.125931
H   79.206947   42.806206   54.973335
H   55.231995   89.810524   71.801537
H   82.213623   51.741447   99.476570
H   55.841263   24.715517   46.646027
H   59.933674   96.450996   13.601297
H   22.838432   57.840153   33.834927
H   74.762352   68.478333    5.026218
H   45.688774   64.116638   23.688787
H   54.845680   79.431618   79.637177
H   91.814911   42.923832   16.786488
H   88.247902   43.788673   80.373100
H   63.868332   96.057121   88.710205
H   37.663979   91.541573   91.396637
H   33.912773   77.805695   39.701046
H   24.972126   27.676262   68.549744
H   71.009010   72.400330   73.118401
H   94.968285   81.166115   47.311962
H   13.659679   62.563354   94.698105
H   74.215050   12.568319   15.292276
H    3.708544   19.079136   38.064407
H   83.349792   49.913101   45.344055
H   27.117851   58.910500    6.717797
H   11.070061   89.344818   80.959412
H   72.536896   37.931572   68.968361
H   26.529665   96.845108   77.508232
H   83.438301   59.950321   87.092384
H   62.041012   61.396744   11.913522
H    6.648814   47.477657   49.606880
H   69.363739   82.162254   32.459999
H   88.868584   15.805264   61.976997
H   43.007549   31.193214   92.767204
H   79.653908   47.215553   93.372910
H   63.631760   71.313812   86.765846
H   71.622711   26.994316   92.110229
H   54.339634   29.351048    5.623262
H    0.953464   43.728500   54.458912
H   82.503593   78.595451   32.302128
H   59.729053   85.745781   18.791697
H   49.609909    1.112041   83.509399
H   35.157471    6.851169   45.795757
H   36.983078    8.927709    9.094509
H   49.063091   89.831467   18.640692
H   98.964508   86.358337   10.063821
H   75.768318   58.642975   31.860853
H   21.437763   46.668415    0.997710
H   76.039352   63.635399   67.616707
H   56.473919   40.595840   40.268105
H   93.384933   68.786163   69.317139
H   17.970020   97.566399   76.551491
H   43.209614   45.721031   99.714813
H   18.526808   56.288013   85.800812
H   99.953911   47.469238   47.847340
H   75.005302   35.562134   25.578583
H   91.176666   43.405117   37.694561
H   99.060349    7.914817   43.146805
H   74.621338   62.846260   73.608055
H   99.092911   62.211922    0.452178
H   36.585274   24.299675   74.384422
H   69.256973   65.296127   38.720100
H   36.688751   74.369164   72.038155
H   43.069450   87.071274   96.674271
H   72.166344    7.648828   32.366417
H   44.561905   65.682816    7.922283
H    6.607904   10.141750    4.483467
H   31.598915   23.983070    5.813808
H   35.270798    0.172069   79.059433
H   77.049294   68.663162   76.117790
H   75.749863   34.277069   84.836761
H   19.348379   68.998535   92.486938
H   82.597969   96.635880    9.473965
H   11.909489    5.796154   78.110863
H   20.690165    1.111042   49.164764
H   33.546825   71.509407   42.255302
H   73.877937   34.899326   34.266079
H   29.463549   88.994713    0.471591
H   65.630264   45.964031   68.705925
H   38.277493   63.605228   56.939720
H   72.075981   40.620975   66.677284
H   84.182190   69.811836   42.632591
H   96.798172   74.708572   42.428280
H   70.787956   72.904129   19.604902
H   95.614174   80.552307   48.121120
H   52.243080   87.906197   62.365906
H   38.524567   74.225945   22.094086
H   50.234814   70.345085   46.707642
H   60.419685   84.091446   32.923447
H   26.635275   53.740105   50.078491
H   46.809921   49.688057   92.278084
H   78.115616   28.617905   81.184280
H    3.720443   10.533611   26.191690
H    3.186230   25.726402   17.195242
H   66.925133   59.270210   58.567303
H   71.635269   79.579987   22.881598
H   80.672478   56.411423   16.987480
H   56.600189   22.335476   40.648201
H   14.065635   19.670895   84.658325
H   22.983732   53.624420   85.771629
H   99.536163   55.778172   77.245033
H   11.953667   65.950356   74.741760
