100
TIME:    1.979, STEP:  1979
H   83.490875   40.536880   97.334183
H   46.220787   12.042620    2.834975
H   13.772062   16.281227    0.104019
H   81.808777   51.115746   31.687046
H   77.445328   31.383091   12.046238
H   97.328743   99.064095   74.733269
H   49.250248   94.968498   45.213234
H   64.340797   59.809605   26.488617
H    4.980400   96.020508   75.516792
H   20.759100   44.798866   85.185295
H   16.173264   45.871769   49.121799
H   80.307968   22.887484   52.061424
H   17.378540   41.975227   28.432701
H   57.092995   98.976021    7.842083
H    4.571493   93.255249   55.644928
H   21.953789   38.638618   68.767349
H   64.958817   12.871437   53.536812
H   43.434883   98.461693   30.938160
H   76.086403   61.376930   67.622360
H   39.200157   63.784855   51.072151
H   46.839966   59.202511    3.531269
H   52.107304   46.711990   50.747322
H   59.321526   78.527138   75.728424
H   35.170998   60.416721   60.097542
H   58.803337   29.221405   51.163414
H   37.584743   68.638794    3.680969
H   91.427361   60.214405   39.237408
H   65.558640   48.812740   32.187031
H   54.202332   28.642088   63.623833
H   76.877220   41.859879   40.713039
H   93.949989   99.512070   52.812267
H   90.712555   97.836555   16.058098
H    9.755259   23.688980   76.080902
H   61.718758   92.359299   88.379486
H   31.580616    9.322959   45.235023
H   44.621258   39.944920   13.836629
H   69.610107   32.061867   64.402771
H   82.195076   22.732777   62.092670
H   61.753784   38.262184   52.449928
H   76.793236   26.915632   93.737625
H   99.999519   24.087893   88.968918
H   53.759949    0.674988   95.776947
H   28.287123   75.367416   44.418320
H   52.986473   45.939102   74.229538
H   84.991737   53.807926   25.458735
H   52.555714    0.663181   91.206245
H   56.976490   32.496841   44.533638
H   56.345104   15.759024   91.027260
H   22.878820   68.547691   65.533218
H   67.394524   60.871044   45.250179
H   43.393635   78.583687   74.283112
H    1.309297   80.103043   44.144863
H   49.931831   33.483643   87.932579
H   30.863911   74.919121   19.144148
H   83.212082   31.994360   17.199110
H   96.042404   10.452114   25.256973
H   21.712206   32.443993   44.206871
H   78.696625   89.995209   62.581253
H   46.355766   22.386335   59.555450
H   28.425274   79.900681    7.322688
H   84.537277   86.539253   60.096233
H   28.672935    9.523773    5.809832
H    8.466600   72.200249   97.790939
H   78.934326   52.559761   73.412712
H   10.871219    2.784075   79.862015
H   79.772224   43.891029   63.199276
H   28.790083   16.782511   62.608532
H   43.662788   30.718910   60.810246
H   55.536751    7.587997   36.113281
H   70.476135   47.681679   97.565918
H   59.190392   60.749352   38.412449
H   10.789907   85.845810    1.514300
H   77.956955   20.417408   11.003445
H   86.637535   24.144152   85.590706
H   57.585754   31.459581   51.419781
H   72.445381   34.407722   62.766674
H   46.635628   55.021164   26.048571
H   24.957348   21.318296   23.732349
H   56.412941   47.704929   39.757668
H    2.471398    1.172863   50.428535
H   49.609577   49.755322   98.269356
H   89.809479   57.151932   21.294874
H   43.014179   40.288361   18.389713
H   86.307442   81.507179   82.670105
H   55.968765   25.096313   55.910568
H    5.741782   81.747368   79.210960
H   99.327644   59.463501   17.909803
H   87.813156   46.850967   75.168739
H   96.751411   83.984901   12.008816
H   91.368088   27.853752   94.962975
H    5.011435   80.291290   75.254593
H   24.713369   44.344982   71.229225
H   12.260624   86.929855   72.015915
H   38.505871   33.273304   60.251213
H   22.376160   72.463470   61.561852
H   57.378876   17.582869   65.231003
H    5.518950   81.251335   23.375381
H   14.131352   33.087677   24.371540
H   14.438135   45.380985   79.278915
H   62.143936   27.870415    7.079571
