100
TIME:    7.286, STEP:  7286
H   24.599615   53.859657   92.475479
H   99.255875   99.680336   37.510784
H    5.010471   98.088509   37.814564
H   82.699539   32.468170   40.792423
H   29.910120   56.762371   68.151917
H   15.030725   93.314629    0.302762
H   71.109604   53.324230   60.227840
H   47.221062   18.933926   39.217735
H   74.524086   85.774124   41.459278
H   75.753090   21.001162   92.994118
H   22.529053   59.410572   37.925186
H   77.755478   88.900299   74.303749
H   79.145638   20.973515    1.044347
H   94.322472   82.618385   11.707272
H   69.101753   19.211388    0.519974
H    8.568668   74.468750   28.239573
H   38.210396   63.881603   36.661678
H   56.875462   40.302155   46.955452
H   58.743938   84.009933   47.215717
H   96.221542   51.084759   12.397318
H   31.915146   30.873039   59.486004
H   60.896255   53.756256   98.808105
H   88.463600   35.365654   23.889650
H   42.083580   23.989962   65.953110
H   68.995186    8.343109   90.348671
H   13.253201   11.310699    5.237248
H   33.798725   39.606682   44.534801
H   17.770489   96.525566    7.607929
H   69.597862   10.135124   12.759214
H   80.371048   10.511288   62.604637
H    2.804255   75.404816   32.933876
H   25.799618   51.205074   24.762520
H   83.573250   35.403435   54.177376
H   85.952278    6.004323   64.803650
H   99.627083    8.017555   68.339035
H    5.997453   56.099701   96.519722
H   78.620804   37.707153   82.573700
H   62.846504   25.614590   36.593910
H   37.528233   22.666666   38.244461
H   76.933174   30.092131   11.281415
H   37.304611    6.185013   13.999641
H   86.189476   70.175201   51.922359
H   73.990570    7.194454   27.749348
H   14.108673   34.937767   93.122185
H   24.649616   44.422901   79.592598
H   84.075768    1.885846   12.761427
H   98.656540   21.075718   95.402275
H   56.632320   70.413422   19.393902
H   78.006233   29.023525   53.833946
H   78.710693   41.631016   74.095833
H   43.001301   66.227249   30.231140
H   59.228283   87.652054   95.756073
H   60.007511   64.255432   79.709816
H    7.967339   88.325150   53.327042
H   60.672836   97.114677   62.321674
H    2.670463    4.869558   44.594162
H   58.151371   79.311867   48.946724
H   83.525314   88.814339   25.885187
H   64.907036   46.626583   52.139076
H   78.217461   87.814087   56.379417
H   19.307013   39.738739   46.321510
H   40.323555   60.125015   65.687531
H   68.708229   10.099198   33.847565
H   43.356525   81.453003   29.324421
H   21.515869   78.924072   74.082329
H   53.756897   80.064751   76.989029
H    2.998659    0.259518   18.830362
H   77.071831   34.232109   14.515532
H   20.034653   26.260834    3.266492
H   77.999641   14.602312   86.390106
H   90.668388   99.662262   74.750557
H   73.282433    9.675736   90.107307
H   31.930918   57.915928   74.937561
H   69.812523   88.288452   70.244263
H   13.445470   39.043430   53.731083
H   97.900520   74.537987    5.674631
H   28.507381   95.178169   19.959497
H   74.289856   74.307472   16.817369
H   10.904397   32.117443   98.968620
H   42.212326   12.116336   93.225868
H   53.450356    4.659371   15.457135
H   88.032265   91.721481   77.457008
H   78.731438   28.965734   23.824768
H   51.413967   35.638302   97.954308
H   97.561996   93.138634   41.456322
H   83.603806   76.682343   47.745224
H   53.770252   73.600914   70.967934
H   73.207939   22.040541   20.033417
H    6.887774   88.499779   68.600716
H   22.158205    9.508862   84.673523
H   22.195881   66.853157   87.328781
H   17.389116   43.455887   72.351311
H   52.500095   46.136257   82.442146
H   51.429649   55.206017   18.082544
H   30.622810   97.093430   83.511322
H   95.715286    8.016122   91.117378
H   84.274132   85.808441   18.164333
H   24.213655   46.970028   32.615837
H   61.624809   68.264915   34.758587
H   91.773155   91.663925   95.856323
