100
TIME:    7.500, STEP:  7500
H   10.128098   34.234718   92.279556
H   93.345535   11.277034   51.004971
H    8.689089   13.484088   35.301853
H   82.735458   23.650867   29.061749
H   27.992525   73.915413   62.349335
H   11.711873   93.082787   21.495918
H   59.893620   67.774750   76.962921
H   30.401085   37.447002   19.568306
H   69.263557   65.198959   27.988194
H   69.908058   24.073885    1.373196
H    2.623298   68.021378   17.311888
H   69.588760   99.627075   59.070747
H   65.499611    8.021130   79.776970
H   83.726311   81.958778   27.993359
H   71.700996    0.095868   90.227570
H   99.963715   55.751587   10.475212
H   21.001839   78.037018   56.142941
H   61.451893   29.888855   39.538139
H   62.076260   92.986465   58.489445
H   90.454880   46.540981   26.967447
H   19.216080    9.568062   53.678524
H   81.412643   54.040344   80.584015
H   85.606392   33.625206   17.766245
H   22.199446   26.550020   50.059067
H   61.341133   91.372116   91.929115
H   12.244198    5.002800   85.099342
H   15.345163   30.710272   48.781429
H   99.714104    6.514335   14.681968
H   74.251030   29.550386    2.643773
H   88.576950    5.214432   79.617271
H   11.226882   94.595459   16.002876
H   39.311764   45.293102    4.951486
H   98.646248   19.746572   73.456184
H   94.994118   86.392525   55.787933
H   94.301247   91.814812   81.358109
H   24.599709   72.860901   95.847054
H   99.146988   29.870016   99.436127
H   54.002220   21.697765   51.694664
H   28.494556   18.004519   17.506599
H   56.776566   10.058082   28.118536
H   22.679491   13.527272   19.041227
H   68.154778   71.014404   62.846691
H   75.832245    8.478157   43.206028
H    0.444366   38.529686   14.045985
H    6.086742   35.980259   97.904854
H   81.313255    5.966908   13.630835
H    0.328614   32.714302   97.456200
H   56.645382   72.617554   32.635021
H   84.262703   11.300671   45.296608
H   83.203857   44.888233   59.133324
H   42.986607   45.567184   32.486877
H   69.628525   67.795273   81.708405
H   64.446632   65.496277   67.281776
H    3.012123   84.834457   62.770523
H   43.634079   15.868794   64.141998
H    2.937000    4.644451   37.309097
H   71.718323   73.137032   69.299843
H   67.590256   68.604897   20.372408
H   81.782524   55.670055   35.710945
H   64.094688    4.262197   50.292747
H   32.806866   29.787308   29.637047
H   32.728279   58.133133   56.004326
H   83.235909   95.496124   19.172943
H   58.052372   82.618744   23.513676
H   30.009941   61.832859   94.010948
H   40.610474   69.426140   89.642380
H   85.829163    7.657841   29.162844
H   62.289452   46.470757   24.745972
H   30.701019   10.884155   89.845459
H   82.345863   25.350367   85.936218
H   83.873131   85.101929   72.183968
H   55.659946    2.569860    5.793799
H   17.977129   47.331196   69.451721
H   65.100578   74.743652   57.528870
H   23.753462   39.358540   69.956757
H    2.959375   88.252586   91.274727
H   47.943073   76.656929   23.754686
H   84.343964   60.314884   28.636415
H   21.166059   31.488857    1.356334
H   31.717415    0.458393   74.789528
H   57.639839    6.873300   28.247650
H    4.091149   93.109268   59.553333
H   92.266441   32.544590   44.205643
H   66.136177   53.950558   78.407738
H   87.142166   79.750572   20.711802
H   78.679611   84.542114   62.605972
H   68.062828   58.041374   81.172249
H   76.649651    4.916067   17.814590
H   11.329457   76.584404   66.850471
H    3.237501    0.703763   92.324310
H   30.953632   78.409340   91.848068
H   33.222950   59.550949   76.429771
H   66.217957   52.557629   98.991096
H   72.111580   68.189171   32.512203
H   26.922318   77.925644   88.428986
H   13.390883   99.565857   80.064064
H   67.287621   98.089539    5.856633
H   23.800585   57.558025   28.319529
H   51.430290   69.189018   16.833279
H    5.066027   86.171555   75.241974
