100
TIME:    3.641, STEP:  3641
H   71.096344   88.123138   95.812576
H   99.988472    2.153170    7.673056
H   42.340225   35.851631   80.602043
H   82.087738   82.640495   40.587620
H   62.558945   64.599709   66.982178
H   71.562874   97.263527   39.326462
H   62.143833    7.194561   75.183876
H   33.710876    3.595433   73.889992
H   64.125206   36.226166   70.900047
H   75.342049   68.662727   50.268959
H   61.578079   12.745916   89.029900
H   16.872917    6.195207   33.758156
H   11.658853   41.421921   63.242302
H   74.800056   93.853279   34.321980
H   24.789570   44.798294   75.753792
H   55.127975   93.273796   30.806929
H   31.319679   22.794949    4.842947
H   78.946373   17.639030   73.316589
H    1.978492   31.097826   55.182934
H   94.425316   28.495634   64.228844
H   48.214615   93.743835   58.417725
H   11.446564   48.917465    9.213455
H   37.131432   65.010201   28.177711
H   80.753136   80.349762   36.661243
H   99.361847   97.409027   63.429420
H   29.962336   19.120348   47.899529
H   48.111721   91.124771   72.215065
H   25.325148   26.389267   87.123558
H   90.340485   79.432114   85.060677
H   40.604736    0.724619   72.837738
H   59.353367   48.550655   21.314613
H   95.652290   51.912743   62.198448
H   26.824236    2.089885   25.806990
H   31.943066   40.046761   18.361465
H   90.265137   83.688347   46.439056
H   89.130104   70.505829    8.118737
H   29.018612   71.194321   95.361992
H   13.503753   92.316917   79.376366
H   91.384186    2.087576   91.472603
H   20.252274   71.325714   24.500193
H   86.415558   81.114777   28.126081
H    4.388809   75.269333   73.858643
H   42.602901   85.333939   64.465660
H   46.856216   73.792725   36.731743
H   40.825794   88.236359   67.680969
H   31.113743   32.363300   97.952034
H   70.179977   22.848015   60.415527
H   56.433865   32.871078   93.862404
H   71.458054   30.901909   99.231995
H    2.240115   86.156639   29.008121
H   43.266834   18.128494   91.806946
H   82.078827   25.881317   35.037273
H   84.401390   43.120483   91.405678
H   92.377434   47.801590   92.484467
H   50.891647   77.674011   31.314787
H   98.121933    8.704382   68.678574
H   27.075579   84.487038    2.276763
H   54.939690   33.040451   19.771580
H   77.434288   92.609344   31.961243
H   18.750961    7.646643   60.051888
H   89.377419    9.249618   30.514858
H   69.688408   94.052170   30.610626
H   21.247381   58.827934   83.796165
H   93.060234   61.600639   28.287045
H   76.841042   70.044228   34.639988
H   77.672829   61.267921   61.468140
H   95.443832   74.239777   42.850323
H   28.857140   25.770292   40.263454
H   38.369537   88.167297   31.875401
H    4.153486   31.273897   94.066223
H    6.413509   47.666435   18.471882
H   73.749374   30.687576   23.198315
H   69.591431   38.207066   68.395256
H   50.060650   18.969322   86.818596
H   37.718769   33.829304   77.410316
H   11.731273   40.926781   50.935749
H   97.533821   10.968563   55.442219
H    3.041132   12.644041   15.517849
H   36.111641   42.823963   58.307762
H   20.963966   10.656574    7.245837
H   82.126846   66.949478   97.603333
H   14.512359   68.006058   82.319092
H   48.165058   68.032318   76.687195
H    0.645656   23.727360   30.867790
H   75.042664   21.137394   94.798401
H   67.497070   42.794754   94.625168
H   10.328894   38.622566   97.160141
H   14.564619   13.786903   57.877640
H   31.245819   91.447548   98.412117
H   44.425465   59.476898   54.372826
H   73.027313   70.033821   10.353066
H   47.691879   69.327690    2.903618
H   18.849285   36.765404    0.568570
H   99.143593   34.085960   72.311562
H   93.638634   23.590824   99.754173
H   94.653229   51.951851   79.386452
H   73.596985   76.630196   27.792421
H   20.231428   47.238617   97.776482
H   35.264458   52.545216   40.065300
H   65.365990   85.199318   46.991081
