100
TIME:    7.966, STEP:  7966
H   78.614250   91.501122   91.852921
H   80.475357   36.530148   80.387527
H   16.699175   47.009567   29.830956
H   82.813675    4.450481    3.518350
H   23.816828   11.267278   49.713806
H    4.484841   92.577934   67.646553
H   35.472279   99.239136   13.404743
H   93.774399   77.761742   76.782555
H   57.808388   20.394634   98.655197
H   57.180092   30.764956   19.620628
H   59.277115   86.772018   72.423401
H   51.802719   22.984783   25.900146
H   35.784431   79.814163   33.468006
H   60.652428   80.522438   63.457455
H   77.361031   58.470444   67.814972
H   81.227295   14.993629   71.793243
H   83.528633    8.860577   98.564758
H   71.414749    7.213495   23.385471
H   69.335236   12.535596   83.041534
H   77.897568   36.646587   58.694923
H   91.562996   63.177792   41.032330
H   26.088518   54.658966   40.899780
H   79.384621   29.836275    4.432872
H   78.902100   32.124725   15.449079
H   44.673897   54.417427   95.370644
H   10.047024   91.265793   41.246452
H   75.162491   11.339017   58.028759
H   60.392838   28.265646   30.085371
H   84.383629   71.829880   80.615318
H    6.445509   93.680649   16.662754
H   29.567118   36.382423   79.134514
H   68.735405   32.419369   61.811546
H   31.470888   85.652199   15.437146
H   14.684028   43.686287   36.155579
H   82.703865   56.532036    9.709057
H   65.108444    9.360066   94.382271
H   43.841900   12.802809   36.154873
H   34.743172   13.168901   84.579842
H    8.823419    7.852365   72.347832
H   12.885639   66.433960   64.784058
H   90.832291   29.515448   30.019987
H   28.882957   72.841827   86.638573
H   79.842621   11.273510   76.865395
H   70.686569   46.351341   59.607792
H   65.663277   17.595814   37.782501
H   75.297691   14.853477   15.524031
H    3.971458   58.056465    1.930004
H   56.673824   77.417206   61.468487
H   97.886604   72.705330   26.706463
H   92.988037   51.981052   26.549316
H   42.954609    0.577207   37.400299
H   92.275772   24.552801   51.118622
H   74.109932   68.198303   40.218849
H   92.219238   77.233231   83.334366
H    6.529788   56.707802   68.102600
H    3.517402    4.154264   21.445358
H    1.262730   59.690895   13.620442
H   32.890549   24.597120    8.368510
H   18.535652   75.360802   99.935944
H   33.344910   40.081776   37.038597
H   62.202068    8.116314   93.304420
H   16.189034   53.795670   34.917854
H   14.871875   63.697540   87.217926
H   90.050713   85.157227   10.860732
H   48.507965   24.612799   37.408218
H   11.984459   46.259819   17.196445
H   48.441650   23.768223   51.660992
H   30.099785   73.121269   47.023468
H   53.927780   77.400383   60.620499
H   91.810066   48.754894   84.947845
H   69.075981   53.395782   66.595039
H   17.286934   87.097069   39.950672
H   87.592697   24.281603   57.503857
H   54.843166   45.251163   29.840349
H   46.200958   40.044712    5.289199
H   13.976537   18.118282   59.917465
H   90.265343   36.323189   32.018982
H    6.236857   29.845608   54.373219
H   43.511108   30.120068    6.556860
H    8.865460   75.073540   34.643105
H   66.762733   11.694283   56.099854
H   39.058670   96.131271   20.568970
H   21.741457   40.337803   88.584457
H   98.197853   93.826782   35.846066
H   64.452255   50.598766   75.538689
H   67.956833    1.657492   94.966293
H   99.185905   24.159386    3.392897
H   84.144218   67.627869   12.982941
H   21.001644   50.637840   63.039192
H   62.038342   81.533463    8.983202
H   50.024250    3.573337    1.689193
H   67.702232   94.599075   85.310905
H   96.089569   66.539970   35.027588
H   17.149340   96.460899   63.933926
H   18.864235   36.184074   99.137543
H   51.880539   81.163635   55.994698
H   30.298384   24.831371   79.056602
H   22.901094   80.616692   18.963762
H   29.231010   71.201317   77.801704
H   34.010044   74.211533   30.350117
