100
TIME:    6.411, STEP:  6411
H   83.772781   34.100731   93.276566
H   23.418949   52.267719   82.339943
H   89.965347   35.136467   48.088497
H   82.552673   68.517059   88.754028
H   37.748306   86.627350   91.877426
H   28.602345   94.262581   13.648727
H   16.970131   94.238426   91.801628
H   15.994339   43.234470   19.556705
H   96.033257   69.901855   96.536705
H   99.652168    8.436451   58.734318
H    3.919419   24.202826   22.209869
H   11.149628   45.040821   36.586586
H   34.967606   73.904518   87.992363
H   37.646019   85.315376   45.120594
H   58.474007   97.370720   42.597187
H   43.751938   50.999550    0.871611
H    8.572616    6.009496   57.006966
H   38.163418   82.879898   77.286171
H   45.118793   47.303787    1.119769
H   19.794586   69.665321   52.823296
H   83.838898   17.981701   83.236946
H   77.009155   52.594681   73.322418
H    0.146126   42.481972   48.924683
H   23.383286   13.522432   30.936476
H    0.290944   77.735901   83.886574
H   17.321367   37.134499   87.555534
H    9.250816   75.980484   27.171255
H   91.600418   55.683510   78.687393
H   50.572060   30.747746   54.120422
H   46.818882   32.167747   93.045090
H   68.370506   96.942757    2.161078
H   70.551727   75.380997    5.765656
H   21.938988   99.423592   75.350464
H   48.982140   86.192886    1.666852
H   21.404221   74.267403   15.100738
H   29.934580   87.565514   99.270119
H   94.697548   69.750610   13.626925
H   99.015343   41.629642   74.847343
H   74.463104   41.730888   23.038614
H   59.348080   12.006636   42.438747
H   97.105713   76.158867   93.386086
H   59.929825   66.743881    7.253281
H   66.460358    1.945508   64.546135
H   69.978546   20.251181    7.569766
H    0.549388   78.945938    4.716503
H   95.371086   85.196854    9.206606
H   91.820602   73.489822   87.004219
H   56.581799   61.401199   65.254272
H   52.427895    1.491783   88.736557
H   60.340443   28.312029   35.274567
H   43.061382   50.703018   21.008633
H   16.697273   68.847290   53.193977
H   41.856228   59.181885   30.527430
H   28.228149    2.598765   14.716170
H   30.342014   20.434067   54.878246
H    1.580652    5.789973   74.381226
H    2.682409    4.559676   65.726891
H   48.679108   71.447624   48.423325
H   95.899429    9.650056   19.310493
H   35.958748   20.558567   81.266502
H   64.111473   80.429947   14.544561
H   71.379005   68.269394    5.275298
H    9.302801   69.807899   93.848938
H   83.271896   76.686539   53.083309
H   86.786514   48.808743   92.597176
H    7.509357   23.563133   25.252195
H   73.201859   70.005188   76.585037
H   37.514244   84.188881   72.685471
H   76.426277   89.132767   58.147205
H   60.267967   70.598076   88.233398
H   18.454189   59.196777   85.244789
H   45.350559   38.756485   26.004845
H   88.981628    1.193535   97.367981
H   89.078651   43.666782   22.233469
H   71.269768   37.781254   87.395035
H   77.219139   18.457321   64.549103
H   49.038662   70.913109    4.441595
H   33.180767   31.520323   68.496635
H   68.942238   34.687595   89.208717
H   85.123856   59.782234   68.607811
H   36.325912   95.606400   63.159443
H   22.373625   86.047119   50.659718
H   23.384819   14.332746   40.494942
H   91.216255   60.762352   77.870934
H   40.167152   47.874153   26.277725
H    3.738866   44.541382   86.982407
H   95.330910   37.220863   29.244680
H   59.135521   92.059021   29.105721
H   88.728867   37.217506   75.757088
H   99.519638   45.511021   53.393364
H   86.387169   19.607807   68.850388
H   52.647976   77.647949   55.678696
H   96.411057   19.880650   14.777049
H   66.864662    2.121112   59.082870
H   45.750298   75.471756   63.404057
H   23.443939   42.567719   36.312592
H   53.727165   35.593674   68.486832
H   25.902613    3.675881   50.179657
H    3.307940   64.486458    8.048027
H   37.422703   14.118660   80.148781
