100
TIME:    9.915, STEP:  9915
H   46.810699   12.769265   90.068558
H   26.647820   42.144054    3.276762
H   50.200588   87.229073    6.952467
H   83.140808   24.153013   96.687027
H    6.352377   67.487961   96.870323
H   74.267944   90.466438   60.662300
H   33.325245   30.846537   65.819092
H   40.586853   46.374874   97.830727
H    9.898247   33.005219   75.974342
H    3.942683   58.749714   95.933083
H   77.985809   65.192642   84.683632
H   77.414177   20.677650   87.168846
H   11.503038   61.845894   39.782440
H   64.149994   74.515083   11.775349
H    1.033730   84.376160   74.086449
H    2.861372   44.526840   10.008954
H   26.801796   37.770653   75.989914
H   13.093711   12.374907   55.822678
H   99.699142   94.298508   85.733093
H   25.388760   95.256805   91.391930
H   75.906067   69.149300   88.131912
H   12.941055   57.246292   74.924454
H   53.362289   13.990866   48.684853
H   97.811096   55.440399   70.701172
H   74.967392   99.850464    9.759655
H    0.854245   33.809311   57.836926
H    7.097057   30.321501   96.692245
H   95.943153   19.238392   94.508476
H   26.763378   48.658176   88.485153
H   81.178505   45.443375   71.602730
H    6.272323   11.153412   24.935852
H   91.796585   78.569473   81.382881
H   68.757851   43.053452   91.018456
H   97.033875   65.072105   54.047905
H   34.198936    8.965309   28.289709
H   34.530888   62.021030   88.255959
H   30.776836   41.427010   89.728653
H   54.185169   77.507164   22.115387
H   26.556179   65.385887   83.475517
H   29.311600   83.973740   18.125834
H   57.631287   96.391647   75.937584
H   64.631508   80.490036   86.128410
H   96.615631   22.967018   17.643848
H   46.246204   79.072121   50.168537
H   96.576965   40.668888    4.551490
H   50.146370   52.024273   23.442141
H   19.209705   64.054382   20.646181
H   56.792782   97.491287   82.061203
H   54.853424   11.291929   48.947968
H   33.898552   81.654930   90.276131
H   46.490452   12.689720   52.310455
H   86.997742   43.700874   23.177809
H   14.529686   79.499268   27.024246
H   47.080437   45.433151   69.337898
H   51.348030   27.507750   84.667435
H    5.944880    2.104106   55.096786
H   24.820190    3.453049   98.986351
H   87.764847   40.537956   58.167747
H   72.256371   57.716850   50.310993
H    4.732016   89.887680   81.604408
H   85.149994   17.478121   41.351704
H   47.015190   35.654648   46.733849
H   47.216557   30.744284   53.589157
H   23.885017   95.774185   57.950111
H   25.865589   68.949104   18.909239
H   92.256042   49.369530   32.437038
H   92.069038   91.149689   45.758801
H   95.468742   84.586494   40.196945
H   51.065460   37.357666   38.381618
H   31.393463   46.648136   80.814072
H    7.177156   20.779018   43.219887
H   56.790123   22.384178   82.810822
H   60.515976   27.873808    7.526829
H   11.944111   21.900318   14.038149
H   40.085655   42.914562   53.063526
H   60.057541   43.031559   28.775955
H   67.276314   67.632736   66.589897
H   97.796761    2.412291   62.020012
H   36.973358   24.395237   28.309603
H   13.284913   68.902138   66.735146
H    4.917898   31.857584   72.589485
H   85.309227    8.779649   57.514015
H   45.019272   72.932167   74.198013
H   32.285580   60.607376   57.834496
H   69.553894   28.677330   86.606308
H   23.096287   73.249977   30.311039
H   29.355349   82.450569   96.328545
H   15.488071   11.669398   92.780289
H   61.449223   42.120522   47.098885
H   89.719604    1.344475   78.652908
H   29.785971    8.811936   42.848778
H   11.908495   41.181885   22.446711
H   21.023975   25.013899   85.746758
H    1.838623   14.426393    0.990563
H   85.165771   61.605331   43.921059
H   12.859984    4.200329   55.326309
H   75.596367   36.679108   66.967285
H   19.139063   77.053970   79.830345
H   36.385155   79.617561   14.551929
H   55.069107   24.200573   42.596828
