100
TIME:    6.323, STEP:  6323
H   89.723953   42.170799   93.357132
H   25.849033   47.498859   76.791603
H   88.452042   28.805458   49.121761
H   82.537903   72.142548   93.577271
H   38.536514   79.573761   94.263535
H   29.967274   94.357918    4.933792
H   21.582222   88.296654   84.919914
H   22.910965   35.621616   27.636845
H   98.196465   78.362671    2.075831
H    2.056005    7.172788   55.288761
H   12.104965   20.661932   30.686462
H   14.508575   40.629810   42.850624
H   40.583084   79.225929   96.736504
H   42.003319   85.586617   38.423512
H   57.405159    5.231293   46.828938
H   47.290146   58.696327    8.176545
H   15.649199    0.189098   48.995979
H   36.281521   87.162003   80.336952
H   43.748493   43.611832   96.483322
H   22.165253   71.534462   46.831841
H   89.060944   26.742626   85.625740
H   68.572510   52.477859   80.816437
H    1.321165   43.197670   51.442383
H   31.559769   12.469698   37.472370
H    3.438207   84.714294   83.236671
H   17.722521   39.736122   95.831047
H   16.839165   79.638199   25.424978
H   99.025955   51.575966   75.778946
H   48.658607   22.763950   58.280334
H   43.444492   34.345726   86.049240
H   64.907494   89.051277    9.123299
H   64.995331   77.812759   13.912239
H   15.740402    5.861954   67.422729
H   45.264000   94.257584    5.373973
H   23.594284   80.930244    9.746596
H   22.285135   80.673058   99.546730
H   86.256874   72.973267    6.693011
H    2.652566   43.240299   68.637016
H   78.177216   43.648369   31.566233
H   67.636642   20.244968   35.514736
H    3.119862   73.138969   91.312843
H   67.345963   66.398788    2.760769
H   65.703033    1.417609   58.190056
H   75.598053   18.774130   98.965660
H    8.182716   82.418350   97.186020
H   96.507072   83.518387    8.849092
H   91.133102   68.704178   86.159615
H   56.577099   60.494827   59.809330
H   49.855812    8.779747   92.246567
H   58.493458   26.972277   41.427826
H   43.067425   59.198746   20.081112
H   12.419674   77.012695   58.970589
H   40.030727   58.671631   35.638599
H   30.265808    4.034694   10.833205
H   37.348686   12.722112   54.129650
H    1.471048    5.882541   77.376953
H   97.103432    7.099029   57.357384
H   55.231842   79.758049   50.689926
H   88.958633    5.931413   26.065987
H   41.765572   13.794347   83.769432
H   58.560444   84.522720   21.405499
H   74.502296   69.088486    9.257182
H    3.328406   75.812782   99.883362
H   77.229416   76.207169   55.472775
H   83.293961   55.837490   84.402229
H   12.915028   27.937889   20.048948
H   80.262161   66.962463   72.336502
H   43.592979   79.156166   68.478561
H   72.040779   95.455887   63.666676
H   58.485435   66.172295   88.418701
H   21.248837   65.184204   86.300209
H   52.606236   41.677017   19.561882
H   94.719299    5.546135   99.623840
H   91.016273   49.235935   27.461893
H   67.026604   37.655704   80.724136
H   75.139183   12.817337   70.470734
H   41.046474   78.529320    2.880872
H   29.046368   37.274750   63.637085
H   64.721901   34.946079   88.227150
H   89.439529   64.575935   76.189110
H   34.603806   94.695999   57.899799
H   15.770206   85.476440   58.021473
H   17.818352   12.861234   32.114021
H   85.161690   53.232079   85.908775
H   44.451942   53.378853   34.808365
H    5.764356   41.308655   80.871445
H   89.453590   43.619179   25.048513
H   57.720238   99.100525   30.018135
H   86.902695   42.117287   76.476814
H    7.300122   49.131809   50.247917
H   82.785851   14.856068   66.991989
H   46.136868   71.029419   54.002243
H   90.770065   17.240086    7.971873
H   58.359982   96.782295   53.149155
H   47.271660   83.353836   61.381840
H   16.175507   46.042816   40.857880
H   60.712273   30.543600   73.547745
H   26.072474   99.321594   51.946075
H    7.499995   64.106453   15.419182
H   31.956942   16.376869   88.625710
