100
TIME:    2.221, STEP:  2221
H   67.125153   18.344193   97.112625
H   39.489128   25.163446   18.099905
H   17.931807   33.691132   97.264336
H   81.849396   41.145653   18.422207
H   75.277756   50.780460    5.484901
H   93.577034   98.801918   98.698418
H   36.567921   11.309435   64.137947
H   45.320076   80.746429    4.268478
H   99.031517   72.753265   60.284252
H   14.146528   48.273628   94.660576
H   93.663025   55.609226   25.811846
H   71.072708   35.017761   34.835320
H    1.985232   27.333961    4.380041
H   45.110420   98.230110   26.259060
H    7.515209   71.638611   44.011307
H   12.222794   17.472481   48.679459
H   45.502365   28.875282   75.569839
H   48.606407   86.693291   22.547588
H   79.856575   71.528442   80.373001
H   32.680824   58.646564   67.548653
H   32.479340   35.109966   96.962601
H   75.309784   47.032394   30.139587
H   56.090477   76.558968   68.804749
H   12.686592   63.319126   42.123680
H   50.147820   10.028976   52.948799
H   36.475109   61.427753   80.997368
H   70.560326   50.153843   44.039669
H   45.140121   60.108486   40.186298
H   59.464325   50.598305   52.184074
H   86.156792   35.870438   59.951626
H    3.469992   21.214518   33.664150
H    5.992527   91.149208   93.654991
H   26.801517    5.983730   97.882172
H   71.943642   70.181381   78.184143
H   25.564404   91.029449   59.970451
H   65.661850   58.956409   13.004865
H   92.821960   23.198645   83.471497
H   72.191750   18.303471   79.170860
H   51.325127   33.023499   29.080492
H   53.999462    4.260203   12.777433
H   83.460243   32.391644   94.670334
H   32.010376   11.536544    7.146149
H   30.371611   76.818619   61.897369
H   37.532829   49.995453   97.891891
H   63.999157   44.260639   46.168312
H   49.433598    5.278950   92.188484
H   59.081432   45.623627   46.775848
H   56.358028   18.250624    6.000801
H   29.952047   48.505543   55.879135
H   72.468193   64.554161   28.325024
H   43.375172   55.220436   76.834717
H   13.069391   57.647655   28.257336
H   54.951958   34.886841   73.878441
H   25.260349   70.971703   29.822302
H   63.947639   53.210346   19.252211
H   96.345200   10.197784   17.018723
H   37.053226   25.461235   67.223015
H   60.676605   67.141541   56.348099
H   65.441246   32.612087   40.975998
H   12.456406   98.500443    0.440044
H   99.802597   75.284126   41.228756
H   20.084808    7.270809   94.860336
H   24.881462   55.697899   81.188889
H   95.551147   53.876183   66.843529
H   20.476665   83.456696    2.398213
H   64.905708   31.860451   77.508202
H    9.373327   25.149080   74.292007
H   26.946266   44.558960   72.379242
H   67.598167   90.199440   20.934738
H   75.379944   59.854424   97.056335
H   51.506035   44.283104   35.509052
H   90.835693   77.814346   19.232515
H   62.178360    8.447758    4.797985
H   81.312767    8.829688   71.207924
H   69.253441   31.803919   69.764755
H   78.165260   49.918602   46.484035
H   68.608215   34.045197   30.329248
H   36.326946    5.494430   37.097813
H   68.015976   46.994953   42.458000
H   90.603249   87.993790   29.579964
H   54.345371   52.258923   12.732939
H    7.966734   58.732376    1.058372
H   58.325657   44.328094   41.439091
H    2.954084    2.215426   60.566040
H   44.185593    9.958574   32.451309
H    0.171685   90.635521   96.016106
H   15.490301   41.868134   29.449263
H   91.708878   27.475754   72.650368
H    1.773632   70.510506   10.029106
H   69.973007   17.896584    3.614273
H   14.915131   93.359497   80.365189
H   42.620388   62.544094   75.841316
H   27.787197   94.182175   90.737534
H   61.896816   47.953342   76.568504
H   18.191490   50.786621   67.122948
H   77.367065    8.026888   52.731461
H   86.310043   95.139305    9.457653
H   15.019891   35.148163   20.498898
H    2.910215   46.424152   59.006851
H   77.172928   21.654800   83.771515
