100
TIME:    1.347, STEP:  1347
H   26.229979   98.494644   97.912796
H   63.800987   77.778084   62.968594
H    2.908690   70.812706    7.523841
H   81.702698   77.153343   66.331169
H   83.106094   80.725517   29.181618
H    7.128696   99.748787   12.143295
H   82.373711   52.294445   95.789925
H   14.014755    5.135263   84.517006
H   20.516167   56.784851   15.297843
H   38.029137   35.724281   60.439240
H   74.960373   20.441715    9.999968
H    4.427341   91.209007   97.048607
H   57.578575   80.211922   91.248222
H   88.386330    0.924240   59.748486
H   96.884361   49.705997   86.023453
H   47.364670   93.917473   21.228012
H   15.770487   71.076248   95.996910
H   29.929085   29.196213   52.848434
H   66.240334   34.861977   34.327465
H   56.225853   77.208603    8.042612
H   84.343750   22.119072   20.684742
H   91.506889   45.877823    4.559899
H   67.759636   83.667152   93.810089
H   93.890602   52.836887    7.033734
H   81.407829   79.345253   46.500755
H   40.482632   87.472656   62.917450
H   45.925751   86.484146   26.695967
H   18.885880   19.313107   11.296702
H   40.460266   71.302399   93.499565
H   52.642971   57.501724   90.471581
H   69.088905   42.836899    2.822542
H   50.807529   15.297589   74.565544
H   65.239822   69.929390   19.145353
H   35.015755   50.278175   15.004522
H   47.290031   57.097298    6.752418
H   89.670898   90.297501   16.009497
H    8.994187   55.206398   14.603494
H    8.318302   34.300220   17.496052
H   90.164078   51.753517   13.022857
H   36.321236   86.081657   44.013515
H   43.188179    2.402105   74.079269
H   10.560509   72.313194   66.084442
H   22.843336   71.577499   98.769051
H   93.344749   35.345657   12.436900
H   39.813232   78.744186   71.376541
H   60.709339   88.608742   88.641060
H   50.303150   98.402710   39.133247
H   56.311352    9.252035   51.922649
H    4.406474   20.891045   90.741470
H   54.140690   51.251598   89.454185
H   43.441853   39.599709   67.619415
H   70.594673   38.747448   85.633743
H   36.821419   29.819092   24.637592
H   45.498005   85.228081   91.256607
H   33.525368   76.590668   11.836357
H   95.251633   11.116314   46.771744
H   81.645370   50.679955   84.098289
H   25.757431   49.680336   78.859573
H   96.512688   95.681992    8.073025
H   70.129532   31.322851   25.297691
H   44.670818   15.930844    9.373716
H   51.103485   15.407547   34.407410
H   65.600311   15.298038   41.148781
H   35.535164   49.121834   90.568596
H   85.787148   53.262119   21.004332
H   18.596779   75.309731   25.830503
H   79.496048   94.932739   32.096325
H   87.319160   94.572922   30.596991
H   24.036079   52.999496   75.751686
H   57.671875   15.892920   98.896729
H   79.258629    3.750544   45.992283
H   62.899715    6.820936   55.243523
H   19.164898   51.676991   27.209438
H    0.543692   64.140305   23.152382
H   27.116558   30.560320    3.509223
H   57.505421   93.902489    5.294211
H   89.253838    9.797720   14.868708
H   95.264832   62.645126   88.829498
H   26.117716   49.556492   32.708229
H   33.466202   35.593391    4.875975
H   37.241718   43.216991   60.495556
H   42.389927   53.024490   74.142044
H    3.026670   29.738829   58.194950
H   42.831951   27.426126   40.396431
H   86.741348   64.629990   17.175774
H   20.288990   58.534199   35.323143
H   57.117805    5.415062   87.773178
H   77.639206   97.450699   81.740807
H   83.636177   19.173433   17.179241
H   47.245712   53.857597   72.368126
H   79.147316   46.165272   61.907909
H   77.951317   96.813759   59.186356
H   71.710182   67.989914   23.122656
H   77.420815   94.937904   17.640354
H   33.304432   29.073532   47.038658
H    5.178281   42.538994   97.874435
H   55.683701   44.981930   59.721939
H   11.810872   27.706573   34.484627
H   44.543968   42.656681   32.219181
H   22.894669   44.104725   67.950508
