100
TIME:    7.325, STEP:  7325
H   21.962313   50.283150   92.439774
H   98.178757    1.793730   39.970005
H    5.680881    0.894330   37.356640
H   82.706085   30.861313   38.654552
H   29.560652   59.888393   67.094437
H   14.425887   93.272377    4.165081
H   69.065460   55.957813   63.277691
H   44.155739   22.307804   35.636765
H   73.565392   82.024445   39.004223
H   74.687874   21.561144   94.521126
H   18.901367   60.979832   34.168663
H   76.267151   90.855179   71.527641
H   76.658745   18.613079   97.168556
H   92.391396   82.498177   14.675297
H   69.575447   15.727715   98.644318
H    7.000474   71.057678   25.002119
H   35.074257   66.461319   40.212002
H   57.709484   38.404404   45.603699
H   59.351231   85.645844   49.270275
H   95.170609   50.256687   15.052622
H   29.600830   26.990356   58.427631
H   64.635223   53.808029   95.486893
H   87.942894   35.048470   22.773703
H   38.459763   24.456514   63.056694
H   67.600288    5.250114   90.636696
H   13.069317   10.161129    1.567099
H   30.435629   37.985352   45.308720
H   14.479810   98.345955    8.897122
H   70.445869   13.673471   10.915766
H   81.866516    9.545973   65.705070
H    4.339208   78.902176   29.848320
H   28.262112   50.127659   21.152092
H   86.320198   32.549965   57.690804
H   87.600090    2.430241   63.160599
H   98.656487    5.064742   70.711670
H    9.387600   59.154312   96.397133
H   82.361557   36.278931   85.646759
H   61.234695   24.900776   39.345917
H   35.881908   21.817022   34.465027
H   73.259666   26.441088   14.349862
H   34.639191    7.523117   14.918390
H   82.902779   70.328140   53.913242
H   74.326202    7.428400   30.566219
H   11.618433   35.592369   96.935539
H   21.266663   42.884289   82.929878
H   83.572319    2.629583   12.919870
H   98.961227   23.196777   95.776588
H   56.634701   70.815109   21.807003
H   79.146431   25.793659   52.278076
H   79.529541   42.224621   71.369118
H   42.998623   62.462097   30.642200
H   61.123653   84.033295   93.195984
H   60.816540   64.481567   77.444893
H    7.064285   87.688995   55.048050
H   57.567642    0.532329   62.653439
H    2.719038    4.828534   43.266510
H   60.623684   78.186546   52.655937
H   80.621262   85.131310   24.880522
H   67.982475   48.274693   49.145164
H   75.643684   90.811569   55.270164
H   21.767275   37.925194   43.280884
H   38.939369   59.762009   63.923065
H   71.355797    7.437869   31.173218
H   46.034740   81.665451   28.265453
H   23.063854   75.809357   77.714180
H   51.361053   78.125938   79.295013
H   99.869537    1.607805   20.713385
H   74.377846   36.462517   16.379959
H   21.978523   23.458542    0.820423
H   78.791710   16.561113   86.307388
H   89.430000   97.008743   74.282814
H   70.070717    8.380740   92.966133
H   29.387938   55.986935   73.937805
H   68.953804   85.820007   67.926971
H   15.324029   39.100857   56.688099
H   98.822319   77.037376    3.050465
H   32.049519   91.802803   20.651144
H   76.122147   71.757500   18.971308
H   12.774550   32.002888   99.403633
H   40.299698    9.991780   89.865974
H   54.213860    5.062844   17.788132
H   90.958931   91.974396   74.194115
H   81.198097   29.617956   27.539040
H   54.096943   38.975582   94.392082
H   95.663055   90.698753   37.675697
H   82.706406   78.114731   50.453491
H   56.374973   70.765297   72.827599
H   73.835167   18.919725   19.629051
H    7.697212   86.328285   68.281746
H   18.710089    7.904194   86.067825
H   23.791920   68.959190   88.152390
H   20.274721   46.389099   73.094582
H   55.000080   47.306507   85.458076
H   55.198669   57.572105   20.712259
H   29.948421   93.600235   84.407532
H   98.936523    6.476133   89.102989
H   81.178459   88.046585   15.921283
H   24.138376   48.899616   31.832960
H   59.766930   68.433327   31.491825
H   94.195778   90.662979   92.099503
