100
TIME:    3.439, STEP:  3439
H   84.756989    6.647542   95.997513
H    5.607668   91.201660   94.931137
H   38.868042   21.319267   82.972313
H   82.053833   90.962639   51.660694
H   64.368240   48.408520   72.459381
H   74.694466   97.482368   19.321444
H   72.731178   93.554787   59.387215
H   49.587677   86.119186   92.436043
H   69.090752   55.647583   83.614433
H   80.862404   65.762306   42.358299
H   80.367630    4.618261    8.487947
H   24.583229   96.070160   48.136971
H   24.507957   53.643143   83.320183
H   84.802040   94.475899   18.949131
H   22.332226   62.841934   85.462959
H   63.249771   10.941631   47.574562
H   47.563271    9.434636   86.454086
H   74.631187   27.462242   80.319519
H   98.832069   22.623110   44.541378
H   99.868614   32.785252   50.475731
H   60.201584   13.853607   63.899551
H   92.080627   48.649307   26.415634
H   39.828423   66.653053   33.957489
H   99.521111   77.927094   51.664219
H    6.586308   13.428909   61.937599
H   30.889330   25.139261   66.832634
H   65.531067   99.520889   68.208107
H   42.368893   16.960587   80.447350
H   85.948242   61.104904   94.609566
H   32.858978    5.724442   56.779083
H   51.402637   30.437597   37.296211
H   82.897835   57.493202   80.898613
H   12.595591   16.868702    7.609234
H   23.407475   58.558907   26.870857
H   95.286163   98.957939   34.139236
H   71.564217   54.637363    8.816102
H    9.644200   78.591782   79.445122
H   21.852211   96.012566   65.120842
H   99.909760    6.488295   11.047762
H   39.278095   90.235474    8.607210
H    0.221054   74.182739   23.367048
H   22.543449   66.204361   64.368317
H   40.862957   84.122604   49.875660
H   59.755539   70.408386   16.981478
H   58.346989   96.207123   50.395565
H   33.719807   28.510456   97.132149
H   68.601852   11.862016   58.475235
H   56.423077   30.790991   81.363777
H   65.552414   47.630959    7.290063
H   98.004265   83.083611   43.135731
H   43.282246   37.630600   89.677094
H   72.261780   44.625923   48.298763
H   80.212578   41.949219    3.137043
H   97.056328   51.098083   83.570526
H   66.974960   59.969772   29.597189
H   97.869186    8.917059   75.555130
H   14.270213   90.315620   83.064903
H   69.981194   52.116653   24.975231
H   61.502251   84.074524   47.469707
H   32.080261   92.120468   65.797249
H   76.635292   18.643345   46.263744
H   76.857780   95.932358   39.751114
H    7.533566   72.611870   97.647911
H   79.189995   60.501808   33.771954
H   68.824043   86.176857   15.828198
H   90.082069   71.309975   49.524323
H   11.650925   67.255341   33.098003
H   42.810600   14.217155   30.606688
H   28.301285    2.681718   44.545094
H    0.061084   21.113947   94.491577
H   12.828110   61.410301   20.895321
H   90.405991   37.391525    8.408786
H   82.761993   48.198261   73.573479
H   54.508373   31.752289   98.820976
H   27.980001   33.541111   62.097569
H    6.955630   27.979921   64.527100
H   79.194283   28.476658   51.869862
H   93.550797   25.852362    4.361876
H   26.425589   43.417301   56.053078
H   30.870399   21.657986   24.648178
H   78.175369   64.859695   85.530060
H   99.355682   66.686844   99.209961
H   35.384403   64.660309   57.447636
H   86.747711    6.441402   49.316750
H   84.878204   33.773182   14.379831
H   72.145142   35.374176   80.597733
H   96.837746   53.309608   87.528030
H   11.313589   29.959549   59.978210
H   27.053154    2.694656    0.064241
H   62.285709   67.787552   47.152596
H   64.760651   59.126339    6.087197
H   32.744385   54.137238   99.054237
H    5.901116   30.704107   84.947594
H   79.620461   21.833015   58.691589
H   97.130852   41.685322   95.112267
H   77.968872   59.928780   89.819954
H   89.630981   65.037758   39.409798
H   19.490141   45.518707    1.009436
H   44.887321   51.674473   56.985451
H   52.819424   90.383705   66.450836
