100
TIME:    0.770, STEP:   770
H   65.250404   51.408363   98.441055
H   79.851265   46.493870   26.571531
H   92.994110   29.300480   14.298805
H   81.605850    0.925093   97.956291
H   88.274231   34.476418   44.826897
H   16.076141    0.375605   55.001865
H   12.615316   13.330999   50.667774
H   59.365814   55.215908   37.495392
H   34.699928   12.261110   51.619080
H   53.797676   27.440628   37.842949
H   28.631500   97.225327   65.578239
H   26.451351   62.286812   38.119133
H   94.283020   15.121508   48.596817
H   16.955738    2.703180   15.836933
H   89.867317    1.245198   13.758678
H   70.564056   44.387699   69.123520
H   62.159691   32.918320   43.461525
H   17.598633   57.255585   72.851852
H   57.254425   10.654498    3.930471
H   71.806190   89.388000   68.718987
H   18.583649   79.561676   36.344818
H   36.180531   45.116249   53.692196
H   75.463417   88.359856   10.318884
H   47.500198   45.916691   49.888550
H    2.045011   25.107716   42.243866
H   43.128330    4.666684   17.001348
H   95.680573   10.468415   15.245947
H   67.569695   92.380188   92.225418
H   27.914108   18.952456   20.773827
H   30.517859   71.782333   44.601070
H   46.391361   91.092628   48.480400
H   14.375299   31.237862   27.981300
H   24.595207   12.145575   67.164635
H   10.636348    3.156880   39.311760
H   61.632271    0.713923   71.615204
H   39.503876   44.972851   17.994871
H   53.651478   76.336769   69.138313
H   32.165161   44.861004   76.777626
H   16.103527   64.070763   68.326797
H   90.668068   40.098461   98.615715
H   82.620407   82.601509   60.484257
H   62.417961   46.416695   38.975941
H   17.873297   68.117401   57.090126
H   30.189150   25.675550   56.019295
H   89.863670    1.511951   21.998606
H   68.117302   77.679253   86.337852
H   44.210560   67.279434   34.202827
H   56.280537    3.311287   16.221128
H   87.538445   68.676926   13.757894
H   42.039150   42.469288   29.810020
H   43.485874   95.304649   61.535633
H   42.552910   92.288605   23.512581
H   24.851946   26.473450   58.150757
H   58.858562   94.639900   65.794510
H   79.460434   26.006796    6.940054
H   94.529678   11.722712   66.414185
H   45.065697   67.328926   29.220955
H   68.722839    4.170259   93.721268
H   51.004410   71.302826   52.370777
H    8.207416   86.972382   41.708946
H    8.272551   42.762016   54.359558
H   71.582336   20.778305   60.516624
H   26.461197   54.645485   80.733009
H   95.913460   45.983093    6.233236
H   62.886894   99.344963   67.270699
H   54.042976    3.994145   91.714272
H   25.790377   74.982147    4.237333
H   27.176765   61.574326    3.013053
H   95.277977   94.459045   11.938566
H   45.984138   86.872215    0.111572
H   97.580421   43.011829   52.912479
H   10.477436   25.970863   12.996977
H   56.786514   80.218697   42.005100
H   13.242885    0.651878   57.445213
H   99.297531   29.739317   59.769215
H   43.863125   56.923500   44.118114
H   36.865849   59.807243    4.658997
H   68.156326    0.371828   56.965687
H   98.459343   51.246922   26.274231
H   61.763290   67.019997   54.584961
H   25.950176   37.247662   26.009411
H   99.096382   49.256241   22.391109
H   66.515373   20.109102    3.238628
H    3.137960   78.051491   93.099098
H   14.836637    0.718978   73.109627
H   33.570309   37.337795   95.254265
H   18.581289   47.367653   60.259670
H   68.350647   43.645821   87.736549
H   71.662300   51.299522   21.900558
H   98.257950   77.600967   51.739605
H   55.534122   15.009981   49.722729
H   35.259159   53.417259   48.194160
H   34.688011   50.701614   78.484001
H   21.650904   59.940216   78.735161
H   43.279728   80.757874   33.779350
H   57.520432   65.324577   27.677620
H    1.483746   11.869016   92.905426
H    9.692332   22.793762   43.715958
H   72.031059   40.169460   80.552010
H   87.061050   58.926800   23.524061
