100
TIME:    5.959, STEP:  5959
H   14.339733   75.551537   93.690384
H   35.901283   27.773123   53.840420
H   82.192459    2.618787   53.395718
H   82.476807   87.138885   13.529336
H   41.796829   50.397552    4.132999
H   35.613117   94.752266   68.886833
H   40.658878   63.719288   56.454639
H   51.520645    4.131864   61.059238
H    7.144341   13.359933   24.988714
H   11.999411    1.945938   41.036686
H   45.963364    6.015935   65.747536
H   28.402405   22.384266   68.760963
H   63.810745    1.237312   32.905449
H   60.026695   86.708565   10.721943
H   52.981621   37.745285   64.330566
H   61.925461   90.532997   38.392303
H   44.919838   76.111656   15.859625
H   28.497313    4.873943   92.956093
H   38.080433   28.340563   77.304672
H   31.971191   79.265907   22.049006
H   10.661201   62.980999   95.506660
H   33.675476   51.994644   11.814346
H    6.181520   46.158058   61.856506
H   65.381935    8.115206   64.507385
H   16.456524   13.580780   80.548439
H   19.381838   50.497383   30.060276
H   48.228050   94.767838   18.201742
H   29.738968   34.585670   63.748489
H   40.743874   89.739319   75.487244
H   29.487041   43.354637   57.111862
H   50.580612   56.409893   37.921822
H   42.012058   87.871414   47.609566
H   90.100945   32.493004   34.630737
H   29.884232   27.615837   20.707788
H   32.647614    8.464594   87.590012
H   90.643570   52.163353    0.691236
H   51.344185   86.303345   78.011269
H   17.696903   49.902561   42.951122
H   93.540131   51.579765   66.840935
H    1.922624   54.322277    6.875727
H   27.995800   60.648323   82.737160
H   98.021805   64.971359   84.176659
H   62.569195   99.234299   31.899250
H   98.842377   12.664511   63.374397
H   39.756611   96.781509   66.038071
H    1.205502   76.575638    7.370287
H   88.289352   48.909012   82.666023
H   56.557659   56.745743   37.287052
H   39.216743   38.925163    6.766171
H   50.856007   21.431143   66.882614
H   43.092419   94.340164   16.244549
H   94.729362   10.788445   82.864754
H   32.479794   56.561035   56.780659
H   38.694305    9.974216   94.771385
H   66.330498   80.823517   51.033184
H    1.017687    6.265433   89.768372
H   74.025734   17.602608   22.738060
H   82.336334   14.133486   60.065414
H   60.249344   90.551033   54.009163
H   65.784912   85.816559   94.122459
H   35.599384    1.451738   49.784679
H   87.421364   72.476547   25.727875
H   78.617561    0.651184   24.843933
H   52.234215   74.224319   65.356094
H   68.847488   84.908951   50.504948
H   35.275047   46.033470   98.525917
H    9.466518   54.378773   54.763016
H   68.736839   58.339024   51.077259
H   53.899220   21.610588   86.494476
H   51.112236   47.863205   89.185181
H   32.808418   89.950378   90.665810
H   82.620071   53.757401   92.911789
H   18.453384   23.550072    8.957489
H   99.030983   72.272972   49.089653
H   49.477634   37.136387   53.130875
H   66.535728   89.488823   94.964752
H    7.993163   10.059153   96.435905
H   11.944987   61.077271   43.533661
H   47.267712   36.015263   84.167030
H    7.290328   84.404427    7.548015
H   27.480547   90.930252   36.144001
H   88.451691   83.115768   88.470360
H   94.794167    6.774456   97.447998
H   60.118233   22.083687   19.154873
H   62.175392   76.146812   70.094193
H   14.142773   27.937344   55.594284
H   65.142860   70.084938    7.691635
H   51.866112   28.228090   33.792213
H   79.348984   62.384560   79.453865
H   39.483051   64.108688   37.237206
H   67.889488   95.200912   59.304974
H   19.204554   43.652771   47.067825
H   67.436874    6.317754   79.823196
H   23.182114   74.698799   28.605150
H   53.564568   15.958271   53.017216
H   86.110535   60.417084   59.658844
H   89.605217    9.655435   94.481522
H   26.775080   81.309326   59.252625
H   24.839874   62.537205   45.908958
H    9.348370   25.717644   23.690990
