100
TIME:    7.068, STEP:  7068
H   39.341873   73.851418   92.675064
H    5.276067   87.868233   23.764870
H    1.263056   82.404457   40.374241
H   82.662949   41.449493   52.742573
H   31.863558   39.288708   74.062958
H   18.411907   93.550804   78.714310
H   82.535843   38.603176   43.179958
H   64.355431    0.074524   59.234444
H   79.882942    6.733993   55.182407
H   81.707375   17.871004   84.458534
H   42.806885   50.638813   58.923187
H   86.074844   77.973022   89.821480
H   93.046730   34.167744   22.708408
H    5.116467   83.290321   95.117287
H   66.453926   38.684227   11.003323
H   17.334606   93.535767   46.335449
H   55.740608   49.463253   16.816278
H   52.213490   50.910095   54.511406
H   55.349331   74.865616   35.731266
H    2.095406   55.713467   97.554955
H   44.851578   52.576241   65.402428
H   39.996384   53.466858   17.372757
H   91.374214   37.138634   30.127512
H   62.339790   21.382051   82.142776
H   76.792305   25.632156   88.738686
H   14.281063   17.736504   25.752306
H   52.597965   48.669502   40.208797
H   36.164551   86.350060    0.401665
H   64.857719   90.356483   23.063620
H   72.011765   15.907150   45.274010
H   94.225044   55.856163   50.181343
H   12.035028   57.227551   44.943886
H   68.218513   51.353600   34.538216
H   76.741432   25.982590   73.987885
H    5.052680   24.523232   55.075493
H   87.047050   39.025208   97.204964
H   57.711456   45.690552   65.396088
H   71.857552   29.604626   21.210899
H   46.730762   27.415956   59.370529
H   97.467140   50.501278   94.129868
H   52.203629   98.705147    8.864071
H    4.561356   69.320312   40.793835
H   72.114471    5.886757   12.003651
H   28.028118   31.278708   71.806511
H   43.558952   53.023350   60.938057
H   86.889915   97.728134   11.875769
H   96.953415    9.219541   93.309959
H   56.619015   68.168091    5.905596
H   71.632820   47.077648   62.530861
H   74.133545   38.312916   89.337471
H   43.016270   87.273483   27.933418
H   48.633190    7.880502   10.066495
H   55.485249   62.991394   92.370155
H   13.015175   91.881088   43.707047
H   78.030075   78.011070   60.467197
H    2.398945    5.098873   52.015396
H   44.331776   85.602119   28.213173
H   99.758224    9.401834   31.501009
H   47.714546   37.414074   68.874275
H   92.604210   71.058929   62.579857
H    5.555094   49.875992   63.317833
H   48.060799   62.154129   75.550354
H   53.907871   24.975597   48.796478
H   28.386192   80.265472   35.243778
H   12.863029   96.334534   53.781208
H   67.149048   90.902214   64.099167
H   20.489733   92.721893    8.304751
H   92.130516   21.764021    4.093871
H    9.169176   41.924927   16.939342
H   73.579796    3.640907   86.849945
H   97.590660   14.495151   77.365120
H   91.224983   16.926556   74.129738
H   46.144699   68.697784   80.525940
H   74.612541    2.086278   83.197327
H    2.944805   38.722431   37.202122
H   92.747902   60.566631   20.343035
H    8.707875   14.046764   16.093370
H   64.047821   88.561165    4.777739
H    0.450834   32.757778   96.537010
H   52.903427   23.992336   12.006612
H   49.183006    2.403919    2.427372
H   71.672951   90.307755   95.695747
H   64.943443   25.319983    3.063197
H   36.416821   16.983093   17.864994
H    8.176588    6.776284   62.589043
H   88.620041   68.675659   32.606705
H   39.210529   89.451286   60.572884
H   69.701897   39.485455   22.293716
H    2.363225    0.637844   70.383675
H   41.432697   18.478542   76.879730
H   13.274433   55.082230   82.725021
H    1.259325   27.060234   68.196617
H   38.525822   39.594860   65.583870
H   30.361729   41.980186    3.383404
H   34.391945   16.620827   78.501740
H   77.709396   16.624441    2.377380
H    1.578105   73.297791   30.702427
H   24.634447   36.184124   36.991737
H   72.009880   67.323540   53.018948
H   78.231316   97.258957   16.857067
