100
TIME:    3.488, STEP:  3488
H   81.443268    2.154028   95.952652
H    4.244600   93.858170   98.022049
H   39.710304   24.844395   82.397346
H   82.062057   88.943901   48.974651
H   63.929352   52.336086   71.130753
H   73.934822   97.429283   24.174078
H   70.162895   96.863274   63.219078
H   45.736374   90.358536   87.937248
H   67.886238   50.936447   80.530251
H   79.523308   66.465874   44.277222
H   75.809769    6.589849    3.768028
H   22.712906   98.526291   44.649040
H   21.391064   50.678589   78.449791
H   82.375816   94.324867   22.678188
H   22.928314   58.465012   83.107765
H   61.279633    6.655832   43.507179
H   43.622993   12.675551   90.914749
H   75.677940   25.079384   78.620789
H   99.595451   24.678858   47.122746
H   98.548210   31.744806   53.811882
H   57.293854    8.975365   62.569801
H   96.778305   48.714355   22.242828
H   39.174202   66.254539   32.555588
H   94.968483   78.514771   48.024883
H    4.833838    9.542839   62.299477
H   30.664465   23.679228   62.239777
H   61.305683   97.484207   69.180092
H   38.234592   19.247742   82.066826
H   87.013687   65.550613   92.293251
H   34.737900    4.511611   60.674500
H   53.331280   34.831409   33.419487
H   85.991737   56.139526   76.362434
H   16.047163   13.283760   12.023541
H   25.477989   54.068336   24.806698
H   94.068192   95.253929   37.122856
H   75.825249   58.486797    8.646939
H   14.343934   76.797348   83.306145
H   19.827118   95.116096   68.578865
H   97.841675    5.420794    6.299412
H   34.663036   85.648453   12.462439
H   96.872208   75.864273   24.521467
H   18.139610   68.403290   66.670425
H   41.285023   84.416443   53.414806
H   56.626495   71.229340   21.772429
H   54.096798   94.273621   54.588558
H   33.087643   29.445057   97.331032
H   68.984665   14.526937   58.945900
H   56.425694   31.295488   84.395622
H   66.984970   43.572922    5.335345
H   99.031578   83.829048   39.708736
H   43.278507   32.900024   90.193741
H   74.643143   40.078903   45.081867
H   81.228676   42.233337    0.291167
H   95.921349   50.298439   85.732819
H   63.073563   64.264099   30.013834
H   97.930496    8.865469   73.887054
H   17.376505   88.901756   87.725197
H   66.332512   47.489258   23.712959
H   65.366768   86.144852   43.707752
H   28.846916   95.886536   64.403572
H   79.726204   16.364601   42.443470
H   75.118675   95.476273   37.533867
H   10.860185   69.268242   94.287834
H   82.554558   60.768356   32.441456
H   70.768761   82.263496   20.391481
H   87.071907   68.874031   52.421585
H    7.719436   68.949585   35.463665
H   39.425850   17.019648   32.949169
H   30.743584   99.160904   41.471752
H    1.053797   23.578489   94.388397
H   11.272093   58.076393   20.307457
H   86.365524   35.765320   11.996345
H   79.567154   45.774654   72.317375
H   53.429470   28.651470   95.909508
H   30.342485   33.611019   65.812050
H    8.114110   31.120367   61.230145
H   83.642982   24.229645   52.736423
H   95.852905   22.648363    7.068059
H   28.775175   43.273373   56.600006
H   28.467354   18.989326   20.426773
H   79.133896   65.366623   88.458725
H    3.032275   67.006851   95.112671
H   38.484661   65.478271   62.114658
H   90.119003   10.634489   44.841507
H   82.492355   30.708065    9.629910
H   71.017639   37.174217   84.000427
H    0.110344   49.746910   89.864532
H   12.102205   26.036469   59.468666
H   28.070187   99.966484   99.663460
H   57.953274   65.771805   48.904037
H   66.765930   61.772007    7.121987
H   36.370262   57.822182   99.988091
H    9.042029   32.174423   88.736839
H   84.356270   24.805233   61.995216
H   96.283730   37.296062   96.238274
H   82.016068   57.993782   87.289055
H   85.741547   67.849785   36.591789
H   19.669958   45.935913    0.225389
H   42.553062   51.885693   52.881058
H   55.862858   89.126106   61.730545
