100
TIME:    6.647, STEP:  6647
H   67.812820   12.459015   93.060501
H   16.901905   65.056786   97.219582
H   94.023758   52.115532   45.317471
H   82.592285   58.794159   75.818970
H   35.634476    5.543728   85.478317
H   24.941853   94.006905   37.020794
H    4.601694   10.174149   10.257212
H   97.445198   63.650761   97.887749
H   90.231926   47.211487   81.682274
H   93.206245   11.825512   67.974678
H   81.967285   33.698856   99.477180
H    2.141564   56.870350   19.788231
H   19.907913   59.632908   64.542168
H   25.960999   84.587959   63.080952
H   61.340462   76.290031   31.248402
H   34.263107   30.358192   81.281738
H   89.594826   21.618641   78.490974
H   43.210323   71.396072   69.104530
H   48.793690   57.204941   13.552577
H   13.436890   64.652626   68.891289
H   69.834320   94.486969   76.830635
H   99.634705   52.907974   53.224823
H   96.995171   40.562599   42.172668
H    1.455431   16.345675   13.409081
H   91.850044   59.020638   85.629494
H   16.245546   30.157417   65.362114
H   88.900719   66.171158   31.854452
H   71.686478   66.699196   86.487320
H   55.703590   52.159679   42.964294
H   55.868382   26.326805   11.806198
H   77.657677   18.105228   83.489525
H   85.452972   68.859451   83.917992
H   38.562801   82.156441   96.611206
H   58.953514   64.564835   91.724411
H   15.530832   56.398872   29.459993
H   50.449810    6.050028   98.528297
H   17.333134   61.108032   32.222813
H   89.260033   37.310154   91.502312
H   64.502533   36.588554    0.169030
H   37.120449   89.913315   61.007687
H   80.976501   84.257683   98.946144
H   40.041092   67.669357   19.301559
H   68.491364    3.361291   81.593620
H   54.909138   24.212362   30.644388
H   80.077309   69.633560   24.912226
H   92.324577   89.698196   10.165392
H   93.664352   86.324051   89.269295
H   56.594402   63.831924   79.856628
H   59.325752   81.945290   79.323349
H   65.294189   31.905001   18.773367
H   43.045177   27.918859   23.496075
H   28.169395   46.947754   37.702156
H   46.751888   60.550293   16.820841
H   22.763519   98.748291   25.129578
H   11.550709   41.116333   56.885845
H    1.874590    5.541724   66.347229
H   17.643473   97.749809   88.172386
H   31.105913   49.160576   42.344711
H   14.512324   19.622944    1.193191
H   20.385902   38.698978   74.554100
H   78.998314   69.453873   96.144150
H   63.002907   66.072739   94.597366
H   25.324881   53.703896   77.665710
H   99.476730   77.972122   46.675198
H   96.152908   29.959019   14.575126
H   93.011871   11.830994   39.206360
H   54.267410   78.165222   87.978836
H   21.212181   97.685707   83.967636
H   88.187386   72.175308   43.344990
H   65.048790   82.467216   87.736450
H   10.959757   43.139587   82.414345
H   25.891870   30.924149   43.284286
H   73.594238   89.519043   91.318176
H   83.882301   28.731129    8.211786
H   82.649162   38.117954    5.285374
H   82.797203   33.582829   48.670105
H   70.472260   50.486622    8.627134
H   44.268475   16.088820   81.528923
H   80.260414   33.994389   91.841103
H   73.550003   46.926399   48.276146
H   40.944290   98.047928   77.264847
H   40.082397   87.577576   30.916779
H   38.313072   18.279333   62.971046
H    7.453080   80.957176   56.315548
H   28.675863   33.111549    3.400346
H   98.307358   53.210968    3.370966
H   11.092897   20.061745   40.498039
H   62.931053   73.174988   26.658791
H   93.626328   24.077730   73.826912
H   78.655014   35.800724   61.828880
H   96.045250   32.351082   73.834274
H   70.109589   95.397644   60.174637
H   11.538939   26.962162   33.027290
H   89.673866   16.438562   74.996017
H   41.670280   54.332626   68.827271
H   42.936554   33.248138   24.122955
H   34.994377   49.137314   54.914383
H   25.447077   15.353185   45.442444
H   92.065453   65.505562   88.281013
H   52.080875    8.062553   57.414677
