100
TIME:    4.688, STEP:  4688
H    0.292625   92.107918   94.854019
H   71.004280   58.901108   73.700073
H   60.337135   11.177676   68.316536
H   82.263474   39.505424   83.198128
H   53.181061   48.521378   38.592911
H   55.327038   96.129234   43.014675
H    7.272930   77.894333   57.060711
H   51.418739   94.173981   77.757698
H   38.387947   35.561386    4.993397
H   46.729118   83.696098   91.265930
H   64.188690   54.874348   88.177536
H   76.913719   58.675835   59.231972
H   44.916092   78.097359   59.198730
H   22.958790   90.626137   13.998401
H   37.524666   51.276184   25.423943
H   13.029541    1.699326   43.896423
H   47.126106   92.045944    0.155480
H    1.317803   66.714012   37.015575
H   18.285576   75.021698   10.345232
H   66.211784    6.261103   35.513435
H   86.084160   89.511871   30.004211
H   11.823471   50.307373   20.051743
H   23.152473   56.495018   98.220108
H   83.475479   92.906860   58.902321
H   61.914215   14.377228   71.161781
H   25.175772   88.066895   49.579548
H   57.828209   47.603268   92.983803
H   36.982090   75.259705   21.731562
H   13.107282   74.424095   35.567177
H   80.752304   74.811577   56.070992
H    0.556327   42.437428   38.479301
H   61.760387   22.988281   65.272408
H    0.573020   25.485624   20.129019
H   76.180481   44.095459   74.253380
H   64.240311    4.543190   10.195618
H   80.157639   52.613087    4.688849
H   29.439535   32.852036   77.861435
H   70.226784   73.161751   53.259716
H   47.191662   79.274284   90.010529
H   21.636580   73.309013    6.876009
H   14.860226   17.041090   52.792950
H   10.290031   22.257437   23.046770
H   51.621326   91.612488   40.092957
H   79.998672   91.334320   39.103127
H   50.005924   46.925850   57.275532
H   17.606075   52.333241    2.205085
H   78.359665   79.786949   70.467247
H   56.489780   43.654846   58.644798
H    2.067495   44.189053   57.469604
H   24.199062    2.085707   55.778343
H   43.186954   17.047359    2.845818
H   32.959724   28.727640   66.304749
H    6.114581   49.191345   30.596907
H   68.125938   30.715309   38.684166
H   67.529419   69.434334   40.221073
H   99.431961    7.602402   33.036224
H   93.451218   54.276512    1.855172
H   76.977432   34.164238   92.802353
H   60.008194   36.849091   51.583397
H   49.658337   88.123108   30.272713
H   55.423462   60.556622   48.881828
H   32.528343   84.306839   83.237305
H   92.328590   87.382126   12.000237
H   64.957436   67.300690   99.857880
H   18.396441   86.421417   32.142536
H   13.354172    9.218515   23.374472
H   11.441298   10.439771   93.398239
H   56.533562   85.648575   90.316109
H   90.550919   12.936539   66.210815
H   25.365557   83.935547   91.861542
H   73.167168   76.428314    5.910956
H   87.420074   95.939178   99.854729
H    1.324470   86.418922   41.548973
H   27.007351   52.714420   24.608238
H   88.198616   35.323055   56.780361
H   36.485664    8.029122   80.486130
H   92.594833   20.221317   73.958351
H   52.231091   44.183941   73.341499
H   86.319618   39.748592   69.990074
H   69.616791   53.636173   17.045708
H    2.608885   77.781174   60.179577
H   93.071114   74.843765   94.769432
H   14.400385   85.519226   76.405731
H   72.675934   13.321171   35.240456
H   24.062777   55.648827   93.303474
H   43.398502   81.253273   67.332138
H   80.255638   62.497131   47.085510
H   31.415255   29.961531   46.990028
H   52.973251   33.151299   89.849007
H   51.856968   16.397743   91.802429
H   15.874991   26.570732   32.463787
H   25.163214   48.061676   22.854403
H   85.963478   68.183174   81.534775
H    0.340092   97.594131   42.906139
H   75.537880   29.807137   23.811329
H   81.131149   10.607893   25.307854
H   90.491234   36.715221   67.577744
H   24.073645   56.153198   81.017708
H   85.387695   57.058422   52.368591
H   30.400728   58.329456   46.130711
