100
TIME:    6.138, STEP:  6138
H    2.234863   59.136284   93.526505
H   30.957733   37.473415   65.127480
H   85.270660   15.496303   51.293964
H   82.506851   79.764313    3.717401
H   40.193542   64.745193   99.279785
H   32.836727   94.558342   86.613121
H   31.278095   75.805428   70.452675
H   37.451599   19.617321   44.623501
H    2.744154   96.149612   13.721253
H    7.109659    4.516285   48.045261
H   29.313217   13.218140   48.505920
H   21.570000   31.356663   56.019341
H   52.388351   90.412987   15.119072
H   51.163551   86.156837   24.344418
H   55.158150   21.756409   55.725231
H   54.728424   74.877052   23.533516
H   30.525764   87.951942   32.154701
H   32.325260   96.164154   86.750526
H   40.867748   35.850334   86.735931
H   27.149040   75.463905   34.236168
H    0.039110   45.160480   90.647636
H   50.836380   52.232269   96.570908
H    3.791434   44.702263   56.735275
H   48.749653   10.256563   51.212719
H   10.054667   99.384781   81.870399
H   18.565855   45.205444   13.227814
H   32.791977   87.327713   21.753828
H   14.635465   42.940788   69.664597
H   44.636009    5.979626   67.025604
H   36.350605   38.924431   71.342056
H   57.626060   72.461235   23.759911
H   53.314274   82.924988   31.038628
H    2.708948   19.396967   50.756470
H   37.447456   11.211610   13.167288
H   28.197704   94.933388   98.489136
H    6.203721   66.183235    0.128305
H   68.512276   79.748169   92.115822
H   10.298695   46.626339   55.582127
H   85.985291   47.679436   49.494301
H   85.062256   37.564243   20.959112
H   15.762886   66.790321   86.954323
H   82.936707   65.673309   93.315666
H   64.110931    0.307820   44.827972
H   87.411789   15.668966   80.876671
H   24.230061   89.718307   81.355331
H   98.895226   79.989792    8.097502
H   89.687790   58.643448   84.384026
H   56.567219   58.589386   48.362568
H   44.448593   24.100906   99.625565
H   54.610592   24.155752   54.363655
H   43.080128   77.059082   18.131210
H    3.428362   94.178741   71.114601
H   36.193027   57.598938   46.383877
H   34.549522    7.053407    2.670153
H   52.078453   96.509506   52.555897
H    1.240631    6.077143   83.674789
H   85.374382   12.437440   39.762398
H   69.007477   97.228828   55.454941
H   74.367188   98.114067   40.267876
H   53.973099   99.574234   89.031273
H   46.890675   93.126846   35.828983
H   81.068306   70.810440   17.628136
H   90.769218   88.436684   12.569366
H   64.526474   75.199402   60.496082
H   75.951660   70.613205   67.174217
H   24.279221   37.134819    9.110082
H   95.104843   60.566586   63.404922
H   56.372139   68.576027   59.634495
H   62.821087    8.748787   75.268738
H   54.738068   56.867012   88.808258
H   27.123947   77.771408   88.518990
H   67.860001   47.816772    6.017016
H    6.781775   14.696487    4.367500
H   95.089684   60.943813   38.453880
H   58.107250   37.391766   66.700089
H   70.766548    0.960447   82.919617
H   24.245220   94.544777   99.601509
H   20.354733   49.372185   53.419685
H   55.850895   35.489483   86.163628
H   98.512253   74.653603   92.127068
H   30.983469   92.782089   46.842594
H    1.886909   84.276581   73.497246
H    6.116148    9.767715   14.495071
H   72.433342   37.401390    2.806310
H   53.459740   64.951118   52.742096
H   10.022572   34.512581   68.024536
H   77.097862   57.070183   16.227026
H   54.744926   13.904348   31.936279
H   83.063583   52.417961   77.989876
H   23.656759   56.743694   43.635330
H   75.214897    4.866671   63.085125
H   32.448742   57.115463   50.477882
H   78.911163   11.688901   93.665543
H   40.481297   85.558540   40.674866
H   50.469978   99.924118   57.130589
H    0.895196   53.348419   50.413315
H   75.396873   19.927469   84.187164
H   26.429567   90.167007   55.659569
H   16.312683   63.308804   30.915359
H   20.466425   21.124241    6.446955
