100
TIME:    1.929, STEP:  1929
H   86.872223   45.122147   97.379959
H   47.611626    9.331705   99.681053
H   12.912611   12.684157    0.690995
H   81.800385   53.175682   34.427883
H   77.893173   27.375370   13.401886
H   98.103889   99.118263   69.781792
H   51.870564   91.592491   41.303169
H   68.270699   55.484119   31.079605
H    6.209496    0.827806   78.663918
H   22.125334   44.080940   83.227592
H   20.824142   43.859898   53.937855
H   82.216080   20.381227   55.620537
H   20.559044   45.000282   33.402245
H   59.568733   99.130135    4.036922
H    3.963285   97.721497   58.048569
H   23.964249   43.011955   72.917740
H   68.978745    9.564857   48.984734
H   42.366386    0.893208   32.671677
H   75.307442   59.279228   64.987930
H   40.547127   64.846786   47.667915
H   49.807037   64.180298    4.888348
H   47.312992   46.645996   55.004906
H   59.989098   78.933784   77.158936
H   39.816536   59.817051   63.811150
H   60.591667   33.186783   50.794533
H   37.814007   70.128815    8.367463
H   95.738731   62.293034   38.245205
H   69.777695   46.478909   30.534334
H   53.115143   24.105841   65.987419
H   74.959953   43.097366   36.738125
H   91.983131   95.028275   56.768490
H   87.555511   99.218239   20.686852
H    6.233244   27.347084   71.576508
H   59.606178   96.941513   90.485962
H   32.823509   13.102656   42.190514
H   40.274029   36.016926   14.008481
H   64.814270   33.892921   60.462955
H   84.261879   23.647923   58.564457
H   64.001785   39.329536   57.242332
H   81.502861   31.596457   89.803909
H    3.416344   22.372232   87.790939
H   58.253662   98.431084   93.427856
H   27.856443   75.067581   40.806946
H   56.179375   45.101013   69.340622
H   89.329048   55.780506   21.179979
H   53.200779   99.709511   91.003304
H   56.448536   29.799471   44.106392
H   56.342434   15.244230   87.933540
H   21.417410   72.688927   67.527542
H   66.346245   60.110012   48.747112
H   43.397449   83.410805   73.755920
H   98.879433   84.742477   47.427410
H   48.894615   33.193726   90.836327
H   32.021671   75.734703   16.937918
H   87.192337   27.611082   16.774916
H   95.979843   10.504662   26.959091
H   18.542574   33.886711   39.451469
H   82.419769   94.717041   63.869095
H   42.412514   20.273565   63.394180
H   31.724606   76.057755    8.744712
H   81.383286   88.864693   63.994473
H   30.447342    9.989262    8.072280
H    5.075048   75.609825    1.221143
H   75.501099   52.287773   74.769981
H    8.886622    6.777539   75.205795
H   82.843819   46.376686   60.242886
H   32.801773   15.053933   60.194592
H   47.116615   27.859222   58.419956
H   53.044609   11.180679   39.249344
H   69.462952   45.166649   97.671204
H   60.778069   64.151665   39.012119
H   14.912545   87.505203   97.853630
H   81.216995   22.890476   12.285564
H   87.737694   27.308252   88.562355
H   55.175247   31.388437   47.629498
H   71.263588   31.203043   66.131096
H   42.095757   59.355042   25.164133
H   22.608257   24.587683   20.970890
H   54.016167   47.851414   39.199959
H    4.923533    3.896005   54.736092
H   48.631107   49.238049   95.280922
H   86.058105   56.825394   25.475973
H   39.850651   39.453705   13.627493
H   82.868111   77.228615   87.237061
H   58.403305   28.223984   60.757523
H    6.892628   79.910973   75.738823
H   95.988258   63.098907   15.525599
H   87.008255   50.854111   75.689064
H   95.713814   86.768867   12.417847
H   95.788559   29.911018   93.175407
H    2.965184   77.591248   74.198685
H   21.013750   40.584698   70.276314
H    9.052654   85.431442   68.147812
H   33.673031   30.240351   56.880165
H   23.240761   76.941925   60.412865
H   53.249084   19.557165   67.813553
H    9.487666   78.381920   26.250900
H   13.947770   32.661957   25.171673
H   16.819904   45.165455   83.467453
H   59.038773   29.154633   11.895350
