100
TIME:    5.252, STEP:  5252
H   62.151039   40.386116   94.337662
H   55.427498   89.461578    9.260535
H   70.034424   51.753662   61.697056
H   82.358139   16.267883   52.283897
H   48.129364   93.728470   23.301350
H   46.579082   95.518211   98.868950
H   77.712135   15.977154    1.166253
H    7.089455   42.966259   25.972492
H   24.523750   81.334946   69.493370
H   31.315947   91.794304   13.351255
H   11.726776   77.568253   33.850521
H   55.388496   86.946404   19.085875
H    8.925980   43.991951    3.156692
H   95.033638   88.887733   56.920609
H   44.383614    0.897994   98.312653
H   90.351746   52.369949   97.078827
H    1.772436   29.349827   51.498627
H   13.378215   39.273495   17.464441
H   27.070107   98.679474   40.057301
H   51.017342   94.282753   73.913216
H   52.615593   33.364258   14.696365
H   65.894699   51.056091   72.021973
H   15.622207   51.908043   82.083939
H   31.071140   99.657440   17.013596
H   41.741852   69.650681   75.327065
H   22.604742   71.397156   96.543823
H    9.192652   24.157059    4.172948
H   89.393410    1.585314   40.376366
H   25.371025   25.594358    8.907787
H    2.378929   60.852715    0.907992
H   22.753956   93.012802   93.857414
H   97.371834    7.406622   13.060066
H   40.301136   84.221291   70.938591
H    0.010376   92.408348   50.492332
H   50.221207   61.909164   44.537689
H   29.184668   96.787468    2.914700
H   83.533936   12.195675   22.302227
H   46.916401   62.842724   93.061104
H   23.383282   66.984978   35.354095
H   68.512901   20.508389   51.251408
H   76.314865   36.391586   66.080544
H   59.600639   47.571030   49.540211
H   56.479389   94.994629   80.831032
H   43.985134    0.797386   94.249069
H    1.084004   24.675148    5.537986
H   10.328899   63.090687    4.497824
H   82.765915   10.459199   75.880394
H   56.519901   49.463867   93.541954
H   18.552399   97.479919   34.969330
H   36.027950   10.670149   16.332939
H   43.143925   62.596817    8.791459
H   60.369698   76.393555   29.277885
H   17.813557   52.461609   97.840599
H   55.065041   21.511238   63.572594
H   22.623085   18.864878   45.018894
H    0.137051    7.009129   13.836334
H   29.205933   38.002647   55.496376
H   34.980362   80.900917   78.275497
H    4.491575   60.678986    8.283703
H   12.441772   31.474354   14.231209
H   91.000488   34.329967    4.909419
H   12.512983   79.057205   57.719582
H   30.618238   48.896286   73.325043
H    3.684494   70.373016   84.547882
H   40.783531   41.375675   84.664696
H   78.707390   81.180656   56.722557
H   66.190704   29.938412   20.628998
H   17.574394   17.904795   17.278570
H   18.660337   72.411110   30.836296
H   36.791214   12.302036   90.673920
H   55.258171   38.054352   99.145149
H   40.915619   77.221222   41.148758
H   64.551147   58.519257   27.086662
H   14.593044   17.020309   91.097984
H   15.391772   36.127712   99.534760
H   49.820595   44.177017   42.536297
H   43.802677   71.338570   83.932655
H   78.728836    7.304543    4.486964
H   13.366431   38.091946   76.281029
H   41.957878   22.916901   68.456757
H   13.645212   83.616013   93.889107
H   35.389816   78.527115   47.608788
H   50.076378   94.951355   30.117605
H   11.479559   61.584152   83.727875
H   96.599785   20.368706   38.629829
H   30.416416    1.968016    6.498000
H   17.923941   21.489746   73.979126
H   40.494400   84.807159   41.125069
H   64.677353    1.749766   85.236214
H    1.990754   93.193039   11.964478
H   38.956169   57.023296   44.374432
H   66.893715   90.480209   33.599052
H   22.116640   85.107063   25.149799
H   54.853027   31.805861   80.933479
H   65.787331   79.287712   36.770542
H   27.715286   88.336334   96.176102
H   45.723045   69.082222   35.141891
H   26.143377   60.955322   71.990059
H   58.519897   59.489605    5.126190
H   65.431458   43.858540   91.798599
