100
TIME:    4.863, STEP:  4863
H   88.457924   76.059486   94.693802
H   66.171059   68.384018   84.733704
H   63.345215   23.767418   66.263084
H   82.292847   32.295647   73.606453
H   51.613602   62.548401   33.847809
H   52.612690   95.939644   60.346180
H   98.101158   89.710358   70.745941
H   37.664085    9.313836   61.690380
H   34.086113   18.735901   93.978004
H   41.946632   86.208839   98.117889
H   47.910614   61.915897   71.320007
H   70.235329   67.447731   46.775078
H   33.748947   67.515007   41.809814
H   14.294307   90.086739   27.316462
H   39.652885   35.644318   17.011868
H    5.992712   86.393204   29.369934
H   33.053688    3.621315   16.086424
H    5.059986   58.199375   30.948797
H   21.011272   82.362320   19.564402
H   61.496765    2.544729   47.428261
H   75.699409   72.090912   25.254436
H   28.600891   50.539688    5.148897
H   20.815971   55.071754   93.213318
H   67.216095   95.003876   45.904694
H   55.655060    0.498405   72.454201
H   24.378023   82.894547   33.123898
H   42.737076   40.328068   96.455177
H   22.216290   83.428116   27.516741
H   16.912697   90.301628   27.295006
H   87.462738   70.480370   69.983192
H    7.443967   58.129375   24.633858
H   72.810036   18.153725   49.071770
H   12.900070   12.682261   35.894402
H   83.574509   28.057709   66.880714
H   59.890411   91.314468   20.851402
H   95.370270   66.319679    4.138269
H   46.223732   26.442764   91.650803
H   62.993160   69.960075   65.608635
H   39.804310   75.461113   73.051529
H    5.153559   56.926216   20.644682
H    2.900601   23.045233   56.915874
H   94.561729   30.111422   31.267252
H   53.128704   92.661911   52.732765
H   68.823517   94.268127   56.213913
H   34.826672   40.021820   72.250511
H   15.348249   55.671101    2.916466
H   79.726852   89.303856   72.146858
H   56.499126   45.457291   69.472816
H    7.182598   29.696064   50.488136
H   27.869373    4.749319   43.539078
H   43.173603    0.151798    4.690653
H   41.464592   12.488951   54.816101
H    9.744590   50.206055   20.433123
H   64.072441   27.859436   46.406639
H   53.595856   84.772469   41.709759
H   99.650925    7.418319   27.078812
H    4.545852   49.226997   18.499352
H   63.946426   17.637243   88.294907
H   73.810524   44.243118   38.147842
H   38.110676    1.573489   25.295296
H   66.462433   52.418919   35.237991
H   26.317865   82.677963   75.319901
H    4.208962   75.440598   99.999939
H   76.973732   68.253983   95.107437
H   25.342527   72.445129   48.439304
H    2.604249    0.519045   33.721840
H   97.400452   16.489670    1.847157
H   44.445168   95.656815   98.682121
H   99.272079    0.362171   55.234863
H   28.911032   92.736816   91.493042
H   67.610298   64.521500    3.811601
H   72.989838   90.131302   12.667457
H   89.914261   77.761848   37.061554
H   23.155247   41.639400   14.210690
H   96.636726   35.572727   70.046356
H   40.623276   19.245001   68.710159
H    8.483469    5.053413   77.053215
H   60.452908   32.740421   83.005272
H   94.712334   39.234562   71.942055
H   61.034485   44.104580    1.969517
H    6.033362   79.591629   70.639091
H    6.201413   75.986649   80.136253
H   25.470064   88.445862   93.070999
H   84.716263   28.296755   19.257446
H   15.541238   44.701981   76.339134
H   39.370373   87.680656   79.484619
H   91.943489   49.773209   55.430161
H   34.232269   15.951195   45.170227
H   56.604843   23.408007   88.417732
H   36.383984    9.197311   98.058914
H   23.036705   36.019932   36.159466
H   38.111652   61.223297   26.188368
H   97.181358   73.435631   95.067795
H   17.254784    8.209138   54.704807
H   72.512444   14.131210   27.832115
H   95.585419    3.697621   16.268929
H   76.600395   46.758175   57.513428
H   24.715849   57.643219   78.216576
H   77.051056   57.812778   37.710045
H   41.270138   53.839367   29.271955
