100
TIME:    4.311, STEP:  4311
H   25.786636   26.680573   95.199173
H   81.416420   38.470879   49.928780
H   53.856873   84.054909   72.740257
H   82.200195   55.037346    3.861703
H   56.557816   18.303164   48.815216
H   61.174519   96.537666    5.678476
H   27.031242   52.437931   27.578821
H   81.050194   61.557163   12.371647
H   47.655327   71.808289   28.724493
H   57.031960   78.282936   76.504852
H   99.256317   39.704838   24.492481
H   91.300880   39.778664   86.067680
H   68.973312    0.894822   96.659424
H   41.625160   91.788155   85.308990
H   32.939873   84.951691   43.546871
H   28.188984   34.673332   75.190369
H   77.442116   67.108582   65.835686
H   93.259117   85.056618   50.085987
H   12.413647   59.207031   90.483017
H   76.370811   14.267233    9.845499
H    8.455856   27.043613   40.235428
H   75.680115   49.806900   52.156799
H   28.185966   59.561134    9.006768
H   18.502922   88.385345   86.900574
H   75.398224   44.276176   68.377541
H   26.894350   99.209610   85.031425
H   90.336494   63.276127   85.505470
H   68.791321   57.662613    9.269021
H    4.909160   40.219357   53.388618
H   66.296112   84.142235   26.100418
H   85.720390    8.631650   68.306343
H   37.956280   33.403297    0.173211
H   74.019142   53.068825   86.165878
H   60.251633   78.645355   90.136208
H   73.611237   33.041679   87.238403
H   47.385288   23.085178    5.874956
H   93.280167   46.658188   48.155201
H   85.810478   80.059074   26.656986
H   63.106129   87.488945   26.544077
H   57.144699    8.601510   77.215454
H   40.625000    4.106342   43.910992
H   44.173019    5.337106    5.336171
H   48.374004   89.351730   12.862270
H    4.072945   85.018005    2.241860
H   82.708015   61.799103   25.014845
H   22.469868   45.142536    0.672498
H   75.414352   59.284813   66.848885
H   56.469646   39.771866   35.318153
H   91.046066   75.412140   72.508057
H   16.292164   96.349358   82.147194
H   43.215717   53.444420   98.871307
H   14.639174   63.711720   91.052277
H   98.294975   47.005371   52.493946
H   76.858330   36.867676   22.048615
H   97.546295   36.394009   37.014019
H   98.960251    7.998969   45.870193
H   69.549316   65.154610   65.999413
H    5.049834   69.766853    2.512916
H   30.276068   20.919243   80.525780
H   74.536514   59.146961   40.995491
H   31.642344   78.089867   78.275948
H   45.908806   87.815903    0.293698
H   66.735435   13.107965   37.852257
H   39.068130   65.247025   10.094524
H    3.432474   16.531216   97.033333
H   36.513466   27.960121    1.083736
H   41.689255   97.405975   75.197128
H   82.575417   64.087967   72.293327
H   71.763046   40.025360   89.853851
H   17.727591   64.975098   92.655396
H   85.138252    2.079058   10.433743
H   18.505768    8.451272   72.253929
H   25.906534    5.067951   51.216156
H   35.308300   76.571663   47.008720
H   70.020515   34.785191   28.201433
H   27.572069   83.867760    5.854490
H   58.366608   52.898235   67.291130
H   34.518948   68.835991   52.521385
H   68.239311   40.855961   65.784950
H   88.105530   74.168526   49.524681
H   95.233231   73.880936   37.646786
H   64.785759   72.381668   26.294661
H   90.553139   79.216705   40.501507
H   46.739540   81.060493   69.672897
H   42.419830   79.229607   29.849213
H   52.076244   67.406853   41.152222
H   55.076668   89.908096   29.108747
H   25.347738   60.145134   50.910400
H   45.149765   54.142403   92.932381
H   85.188370   31.909531   78.324173
H    0.446449    6.213880   24.502237
H   97.266769   19.710167   15.670889
H   61.796959   56.869698   52.380779
H   63.903324   74.727692   17.487616
H   82.055534   63.577560   15.149335
H   49.992523   25.494350   44.780281
H   20.415474   15.079862   89.259155
H   22.690153   52.943268   87.052147
H    3.347132   55.433323   83.945473
H    6.984658   68.003578   82.448059
