100
TIME:    2.004, STEP:  2004
H   81.800201   38.244247   97.311295
H   45.525368   13.398077    4.411932
H   14.201788   18.079762   99.810616
H   81.812973   50.085777   30.316711
H   77.221405   33.386951   11.368414
H   96.941170   99.037010   77.209007
H   47.940090   96.656502   47.168266
H   62.375847   61.972347   24.193123
H    4.365852   93.616867   73.943230
H   20.075983   45.157829   86.164146
H   13.847824   46.877705   46.713772
H   79.353912   24.140612   50.281868
H   15.788295   40.462700   25.947903
H   55.855125   98.898964    9.744663
H    4.875596   91.022125   54.443108
H   20.948521   36.452034   66.692154
H   62.948853   14.524727   55.812851
H   43.969131   97.245949   30.071365
H   76.475883   62.425781   68.939575
H   38.526672   63.254040   52.774269
H   45.356430   56.713612    2.852730
H   54.504459   46.744987   48.618530
H   58.987740   78.323814   75.013168
H   32.848228   60.716557   58.240738
H   57.909172   27.238716   51.347855
H   37.470112   67.893784    1.337732
H   89.271675   59.175091   39.733509
H   63.449165   49.979656   33.013294
H   54.745926   30.910212   62.442039
H   77.835854   41.241135   42.700497
H   94.933418    1.754031   50.834156
H   92.291077   97.145714   13.743721
H   11.516266   21.859928   78.333099
H   62.775047   90.068192   87.326248
H   30.959106    7.433110   46.757278
H   46.794872   41.908916   13.750703
H   72.008026   31.146250   66.372681
H   81.161674   22.275204   63.856777
H   60.629784   37.728508   50.053726
H   74.438423   24.575220   95.704483
H   98.290916   24.945723   89.557907
H   51.513092    1.797058   96.951492
H   28.502462   75.517334   46.224007
H   51.390022   46.358147   76.673996
H   82.823082   52.821636   27.598112
H   52.233181    1.140014   91.307716
H   57.240467   33.845528   44.747261
H   56.346439   16.016420   92.574120
H   23.609526   66.477074   64.536057
H   67.918663   61.251560   43.501713
H   43.391727   76.170128   74.546707
H    2.524183   77.783325   42.503590
H   50.450439   33.628601   86.480705
H   30.285030   74.511330   20.247263
H   81.221954   34.186092   17.411207
H   96.073685   10.425840   24.405914
H   23.297022   31.722633   46.584572
H   76.835052   87.634293   61.937332
H   48.327393   23.442720   57.636086
H   26.775608   81.822144    6.611676
H   86.114273   85.376534   58.147114
H   27.785732    9.291029    4.678607
H   10.162376   70.495461   96.075851
H   80.650940   52.695755   72.734077
H   11.863517    0.787344   82.190125
H   78.236427   42.648201   64.677467
H   26.784220   17.646826   63.815502
H   41.935875   32.148743   62.005390
H   56.782822    5.791656   34.545250
H   70.982727   48.939194   97.513275
H   58.396553   59.048187   38.112614
H    8.728587   85.016113    3.344699
H   76.326935   19.180874   10.362385
H   86.087456   22.562101   84.104881
H   58.791008   31.495153   53.314922
H   73.036278   36.010086   61.084583
H   48.905563   52.854225   26.490789
H   26.131893   19.683603   25.113079
H   57.611328   47.631687   40.036522
H    1.245331   99.811310   48.274757
H   50.098812   50.013958   99.763573
H   91.685165   57.315201   19.204325
H   44.595943   40.705688   20.770847
H   88.027107   83.646461   80.386627
H   54.751495   23.532478   53.487091
H    5.166358   82.665565   80.947029
H    0.997344   57.645798   19.101896
H   88.215607   44.849396   74.908577
H   97.270210   82.592918   11.804300
H   89.157852   26.825119   95.856758
H    6.034561   81.641312   75.782547
H   26.563211   46.225056   71.705681
H   13.864609   87.679062   73.949966
H   40.922291   34.789837   61.936737
H   21.943859   70.224243   62.136345
H   59.443771   16.595720   63.939728
H    3.534593   82.686043   21.937622
H   14.223144   33.300537   23.971474
H   13.247234   45.488750   77.184647
H   63.696518   27.228306    4.671662
