100
TIME:    7.328, STEP:  7328
H   21.759443   50.008034   92.437027
H   98.095901    1.956302   40.159176
H    5.732450    1.110155   37.321415
H   82.706589   30.737705   38.490101
H   29.533770   60.128857   67.013092
H   14.379361   93.269127    4.462181
H   68.908218   56.160397   63.512295
H   43.919945   22.567333   35.361305
H   73.491646   81.736008   38.815372
H   74.605934   21.604219   94.638588
H   18.622314   61.100544   33.879700
H   76.152664   91.005554   71.314095
H   76.467445   18.431507   96.870415
H   92.242851   82.488930   14.903606
H   69.611885   15.459740   98.500031
H    6.879845   70.795288   24.753084
H   34.833015   66.659760   40.485104
H   57.773640   38.258423   45.499718
H   59.397945   85.771683   49.428318
H   95.089767   50.192989   15.256876
H   29.422806   26.691689   58.346218
H   64.922836   53.812012   95.231415
H   87.902840   35.024071   22.687860
H   38.181007   24.492403   62.833878
H   67.492989    5.012192   90.658852
H   13.055172   10.072701    1.284780
H   30.176935   37.860634   45.368252
H   14.226684   98.485985    8.996291
H   70.511101   13.945652   10.773962
H   81.981552    9.471718   65.943565
H    4.457283   79.171204   29.610970
H   28.451534   50.044781   20.874367
H   86.531502   32.330467   57.961067
H   87.726845    2.155313   63.034210
H   98.581825    4.837603   70.894180
H    9.648382   59.389282   96.387703
H   82.649307   36.169067   85.883148
H   61.110710   24.845867   39.557610
H   35.755268   21.751665   34.174301
H   72.977089   26.160238   14.585896
H   34.434158    7.626048   14.989063
H   82.649956   70.339905   54.066387
H   74.352020    7.446396   30.782902
H   11.426876   35.642723   97.228874
H   21.006435   42.765934   83.186592
H   83.533592    2.686793   12.932058
H   98.984665   23.359936   95.805382
H   56.634884   70.846008   21.992626
H   79.234138   25.545208   52.158394
H   79.592529   42.270283   71.159370
H   42.998417   62.172470   30.673820
H   61.269451   83.754929   92.999054
H   60.878773   64.498962   77.270668
H    6.994820   87.640060   55.180435
H   57.328781    0.795240   62.678959
H    2.722774    4.825378   43.164383
H   60.813862   78.099983   52.941261
H   80.397873   84.848000   24.803240
H   68.219048   48.401470   48.914864
H   75.445702   91.042145   55.184837
H   21.956526   37.785690   43.046989
H   38.832893   59.734085   63.787315
H   71.559456    7.233151   30.967499
H   46.240757   81.681793   28.183994
H   23.182930   75.569763   77.993553
H   51.176758   77.976799   79.472397
H   99.628845    1.711519   20.858232
H   74.170616   36.634087   16.523376
H   22.128052   23.242981    0.632265
H   78.852638   16.711786   86.301025
H   89.334740   96.804626   74.246834
H   69.823662    8.281125   93.186043
H   29.192324   55.838551   73.860901
H   68.887749   85.630127   67.748718
H   15.468534   39.105274   56.915562
H   98.893227   77.229637    2.848607
H   32.321980   91.543159   20.704348
H   76.263092   71.561348   19.136995
H   12.918408   31.994076   99.437096
H   40.152573    9.828353   89.607521
H   54.272591    5.093881   17.967438
H   91.184059   91.993851   73.943123
H   81.387840   29.668127   27.824753
H   54.303326   39.232296   94.118065
H   95.516983   90.511070   37.384880
H   82.637375   78.224915   50.661819
H   56.575336   70.547173   72.970650
H   73.883415   18.679663   19.597946
H    7.759476   86.161247   68.257210
H   18.444849    7.780758   86.175079
H   23.914692   69.121193   88.215744
H   20.496691   46.614731   73.151756
H   55.192387   47.396526   85.690071
H   55.488594   57.754112   20.914545
H   29.896545   93.331528   84.476471
H   99.184311    6.357673   88.948036
H   80.940331   88.218750   15.748746
H   24.132586   49.048046   31.772730
H   59.624016   68.446281   31.240536
H   94.382133   90.585983   91.810516
