100
TIME:    9.358, STEP:  9358
H   84.478912   63.848396   90.578506
H   42.030533   11.959482   68.158073
H   40.626301   47.155602   13.491497
H   83.047318   47.101433   27.218306
H   11.343500   22.841949   11.972445
H   82.903076   91.069878    5.499617
H   62.515560   93.234367   22.260967
H   84.365952   98.188522   48.973824
H   23.590370   86.558334   11.034082
H   19.158278   50.752018   74.124275
H   29.796661   42.780396   38.337547
H   98.670540   92.758949   26.816021
H   47.021103   95.561729   95.135513
H   91.729721   76.231911   69.388954
H   94.268257   34.130135    0.875629
H   25.258636   93.243942   56.245178
H   71.592293    0.930752   25.284010
H    1.182104   39.478539   75.130936
H   91.021515   70.934357   56.376011
H   40.394001    7.086325   53.468742
H    8.959497   24.598978    3.251727
H   59.540920   56.506866   22.358109
H   60.799416   18.520540   64.607132
H   49.565159   48.777069   12.067348
H   94.889389   44.024765    5.648193
H    3.481809   50.229660   10.252138
H   55.128876   53.477268   85.643356
H   42.940628   93.239517   76.099327
H   14.651978   98.123283   14.814461
H   59.820152   59.228989   27.322407
H   84.352119   61.204815   69.003922
H   56.627125   93.961426   32.947121
H   29.522064   83.806854   40.839500
H   73.499741   16.117706   77.514046
H   48.061043   51.138069   94.400482
H   86.112656   18.391329   90.006783
H   77.352509   61.824959   45.839069
H   77.207542   87.697639   82.809120
H   50.069065   77.522667   37.452347
H   81.774124   36.118614   74.303360
H   95.698959   77.277069   62.814907
H   11.572683   78.300568   57.702045
H   91.822113   19.624729   77.410332
H   81.808754   69.723061   95.709908
H   44.918457   62.686108   56.903011
H   57.332397   41.400341   21.179243
H   14.854173   33.759182   15.297955
H   56.758785   91.754364   47.597172
H   38.573074   57.419773   71.181213
H   22.207975   73.172783   29.221142
H   43.388264   66.229912   51.265060
H   59.927959   95.385849   59.741646
H    2.976184   76.269592   59.375916
H   59.977890   54.522987   44.758369
H   95.696571   78.695618   79.933411
H    5.251137    2.690016   74.058380
H   89.508774   19.525612   46.011177
H   29.239584   93.139168   72.514305
H   28.324471   34.178467   93.071556
H   41.486897   47.075802   97.446815
H   50.012836   43.380459   84.776054
H   66.784203   40.839127   71.936729
H    9.374854   68.709862   91.764313
H   85.637207   92.739990   73.071793
H    3.757182   13.434834   67.038429
H   26.472336   77.059746   99.502357
H   36.759048   71.890625   18.866467
H   33.944809   52.731697   13.569122
H   23.303003   77.380142   73.316223
H   20.081100   18.673197   81.995453
H   24.866508   58.680958   49.900215
H    2.659167   40.878319   41.983219
H   96.832825   55.424107   21.809643
H   24.204128   57.151134   47.132668
H   13.255338   42.094395   10.831404
H   46.888115    7.332366   66.253372
H   16.688755   15.841213   56.710754
H   71.627892   38.831200   31.257355
H   10.264564   26.031322   22.092478
H   40.599815   99.244087   14.721060
H   94.013954   26.095163   39.298332
H   43.512512    5.163679    4.114014
H    9.787405   63.617100   21.151417
H   93.964745   12.943386    8.709232
H   96.674667   63.519577   40.600433
H   35.917248   52.790207   91.631012
H   92.154503   22.949333   69.768715
H    6.530948   56.239784   98.551208
H   49.890385   73.133904   51.654427
H   38.965961   24.262421   58.740532
H    6.990843   78.734421   31.085960
H   70.696136   99.290894   11.835526
H   85.319427    8.300329   42.673088
H   51.149757   80.870956   58.605358
H   94.795303   11.496426   31.121492
H   66.854019   26.194471   84.095917
H   19.808350    4.715259   99.000565
H   20.214205   49.493481   91.015221
H   62.919487   77.212303   61.207989
H   20.473335   38.493046   96.253632
