100
TIME:    0.915, STEP:   915
H   55.444496   38.111092   98.308304
H   75.817833   54.356075   35.718105
H   95.485413   39.732388   12.596268
H   81.630188   94.951195   90.008904
H   86.975479   46.098808   40.895241
H   13.827663    0.217799   69.361839
H    5.016070   23.122450   62.006962
H   47.969101   67.760147   24.181526
H   31.135551   98.319763   42.491310
H   49.835045   29.522060   43.521393
H   15.143951    3.059654   51.611557
H   20.916721   69.554955   27.797934
H   85.059006    6.348572   34.185539
H    9.776337    2.256112   26.871899
H   91.630699   88.293152    6.788397
H   64.734055   31.704403   57.087387
H   50.501900   42.507401   56.663658
H   20.697273   50.204269   67.824997
H   59.512306   16.737833   11.569284
H   67.881172   86.347992   78.611183
H    9.979141   65.127167   32.409843
H   50.084034   45.307632   41.345203
H   73.527458   87.180580    6.170124
H   34.028137   47.655735   39.119087
H   96.859001   13.608120   43.313622
H   42.463467    0.346374    3.410577
H   83.177597    4.440751   18.123335
H   55.335220   99.148300   97.017746
H   31.066956   32.107578   13.919979
H   36.077785   68.193619   56.128323
H   52.095249    4.095763   37.006248
H   23.530676   27.232086   14.557915
H   34.808926    1.536990   80.227379
H   16.763069   89.868507   33.202980
H   58.028069   89.753059   80.445389
H   52.110840   56.362926   17.495947
H   67.558586   71.026711   80.563789
H   26.172539   42.207081   87.010551
H    9.584604   60.975441   54.429169
H   77.010155   26.523741   10.023981
H   72.710510   87.577477   63.901501
H   49.386192   52.924835   45.788303
H   19.122267   68.986923   67.563484
H   20.930288   28.105455   70.197151
H   77.285469   95.790573   34.407104
H   66.265419   80.405083   86.906471
H   45.741627   75.100708   35.441841
H   56.288280    4.804220   25.192915
H   91.777641   56.668022    7.973525
H   45.080265   44.676281   19.668915
H   43.474812   81.306007   63.064487
H   49.599800   78.834244   13.993195
H   27.859873   27.314209   49.728783
H   55.501057   92.274712   72.193130
H   67.917694   38.718594    8.170494
H   94.711105   11.570324   61.478043
H   54.257629   63.145042   43.011620
H   57.925720   90.476967   89.986526
H   62.439842   77.429306   41.238461
H   98.639053   98.116867   37.584801
H   17.419447   36.019348   43.054665
H   66.436005   19.428665   53.955383
H   36.296661   44.757713   70.785500
H    5.870204   46.771858    2.296049
H   68.641884   87.764610   80.773735
H   45.135353   96.785805    0.287796
H   14.156370   79.995728   11.238239
H   17.160667   69.866867    9.944892
H    2.504401   84.040268    2.844252
H   48.921265   94.164696   99.806396
H   92.976158   33.145077   51.173435
H   98.521683   21.158623   23.613222
H   47.332397   73.045692   38.286953
H   10.051595   91.476486   48.827431
H    6.288478   29.945635   70.761040
H   47.291431   66.216942   34.361988
H   50.031475   47.240105    7.224695
H   74.968689   90.891136   64.973785
H    5.409638   50.822117   27.891033
H   54.652237   59.122810   42.093048
H   28.787739   38.747753   34.675488
H    9.975887   50.203201   10.265791
H   75.690712   22.529051   17.048954
H   13.112917   90.459328   79.854927
H    7.776191   91.649765   59.053459
H   30.232716   42.664448    5.323582
H   28.265509   36.824974   67.173813
H   70.684860   32.036705   86.229820
H   74.671333   43.226021   20.714092
H   85.438583   71.633789   56.923550
H   61.468113   22.839552   52.784863
H   45.987690   64.322792   50.956497
H   43.991676   55.045906   89.701500
H   35.666138   68.735512   88.512306
H   40.772938   67.770355   37.111412
H   69.496826   59.598564   20.188225
H   89.974228   20.190184   84.566422
H   10.224721   24.028351   41.396126
H   65.123558   40.794498   68.405251
H   96.066025   55.202015    9.558182
