100
TIME:    5.032, STEP:  5032
H   77.028969   60.561287   94.539078
H   61.503548   77.541107   95.389038
H   66.251160   35.925720   64.280037
H   82.321213   25.332443   64.343636
H   50.099884   76.094498   29.265781
H   49.991405   95.756554   77.082451
H   89.243202    1.121367   83.961960
H   24.381020   23.934124   46.172840
H   29.931770    2.487028   83.340721
H   37.328117   88.635429    4.735765
H   32.190643   68.716019   55.041164
H   63.785866   75.918877   34.745277
H   22.964676   57.295479   25.017090
H    5.926633   89.565834   40.177902
H   41.708138   20.548891    8.887924
H   99.197266   71.611893   15.340984
H   19.463753   14.799163   31.471159
H    8.673892   49.977077   25.090555
H   23.643517   89.451263   28.467485
H   56.944008   98.955605   58.934578
H   65.670708   55.266571   20.667511
H   44.803085   50.764038   90.757019
H   18.559578   53.697289   88.378189
H   51.513149   97.025604   33.352699
H   49.610504   87.096664   73.702309
H   23.607626   77.899536   17.231840
H   28.163523   33.302303   99.807533
H    7.956710   91.316467   33.103569
H   20.587395    5.634654   19.306728
H   93.943100   66.297661   83.418404
H   14.095492   73.284103   11.263115
H   83.480843   13.484750   33.426582
H   24.804241    0.317774   51.119255
H   90.715027   12.569896   59.760826
H   55.689651   78.539413   31.141846
H   10.061055   79.556328    3.606648
H   62.432373   20.253155    4.967290
H   56.008656   66.868172   77.535286
H   32.670238   71.778679   56.673981
H   89.235252   41.104385   33.941380
H   91.350571   28.843519   60.897442
H   79.372978   37.696609   39.205891
H   54.584400   93.675354   64.939308
H   58.032223   97.104736   72.737839
H   20.167330   33.354500   86.712059
H   13.167606   58.894520    3.603458
H   81.047165   98.494469   73.768883
H   56.508152   47.197937   79.929588
H   12.122192   15.699978   43.746033
H   31.413845    7.321608   31.719444
H   43.160709   83.836136    6.472237
H   49.677864   96.807068   43.721092
H   13.250058   51.185974   10.617811
H   60.159187   25.101479   53.864342
H   40.140015   99.584724   43.147404
H   99.862381    7.240547   21.325653
H   15.259530   44.350609   34.572609
H   51.362198    1.677032   83.942001
H   87.140007   51.383636   25.173275
H   26.958935   14.563802   20.488533
H   77.122925   44.560223   22.061943
H   20.320372   81.104935   67.673950
H   15.682401   63.908493   88.411102
H   88.578041   69.174591   90.519867
H   32.050468   58.947544   64.177330
H   92.222404   92.117546   43.714439
H   83.841461   22.332439   10.006821
H   32.771233    5.322214    6.761298
H    7.695227   88.218910   44.634972
H   32.334885    1.236448   91.137177
H   62.243950   53.022919    1.784155
H   59.054810   84.522552   25.040874
H   78.895325   69.401588   32.727989
H   19.435421   30.944031    4.169677
H    4.785058   35.813839   82.857513
H   44.619026   30.076334   57.338696
H   23.827589   90.405952   80.041969
H   68.392838   21.689854   92.337715
H    2.816939   38.738155   73.827110
H   52.746429   34.899784   87.410004
H    9.340364   81.340012   80.739998
H   18.882095   77.090347   66.004784
H   36.160210   91.272156    9.165441
H   96.343781   42.758469    3.822214
H    7.312157   34.130455   59.956429
H   35.480350   93.887672   91.220444
H    3.230636   37.485535   63.488708
H   36.952835    2.420902   43.412819
H   60.111923   13.998777   87.035530
H   21.441957    2.243752    4.100337
H   29.952873   45.144787   39.728436
H   50.615940   73.933884   29.407919
H    8.014400   78.507332    8.136860
H   33.589783   18.460257   66.099190
H   69.590736   98.992912   31.715046
H    9.544204   97.024078    7.539597
H   63.185814   56.456799   47.794174
H   25.336035   59.082153   75.511482
H   69.000244   58.541271   23.554077
H   51.766880   49.503223   12.991694
