100
TIME:    3.950, STEP:  3950
H   50.199615   59.786194   95.529678
H   91.393089   18.906725   27.164473
H   47.651634   58.082695   76.976234
H   82.139603   69.910088   23.649687
H   59.791260   89.367424   58.603683
H   66.772469   96.928764   69.928490
H   45.950283   28.060406   99.348076
H    9.424088   30.327160   45.518505
H   56.529396    6.516977   51.449291
H   66.897545   73.099510   62.369919
H   32.835648   25.179127   59.264698
H    5.078430   21.683496   11.763926
H   92.003098   22.727081   32.531372
H   59.499992   92.900856   57.837872
H   28.548576   17.197517   60.901157
H   42.704041   66.247612    5.156369
H    6.471602   43.231968   32.972435
H   85.547325    2.612015   62.603878
H    6.790998   44.061623   71.462433
H   86.098686   21.933580   85.267021
H   29.878113   62.983318   50.032158
H   41.070694   49.327667   82.899307
H   33.005836   62.497124   19.335972
H   52.043709   84.055725   13.711206
H   88.309967   72.905350   65.711464
H   28.544310    9.913589   18.937319
H   21.465559   78.281204   78.344521
H   99.252899   40.812347   97.336174
H   97.059311    7.467124   70.453712
H   52.453445   93.076897   97.402710
H   71.514168   76.259193   96.867516
H   15.162454   43.376297   33.592751
H   48.590595   79.481712   53.644150
H   44.998810   11.728765    5.344563
H   82.584457   60.330406   65.254288
H   16.000010   94.778473    7.052238
H   58.654648   59.878403   19.709707
H    0.732686   86.663673    1.182976
H   78.342590   95.354973   61.527855
H   91.147636   42.397636   48.812550
H   65.297226   91.718735   35.405987
H   76.617630   89.136047   88.376022
H   45.264500   87.186920   86.786308
H   27.124376   78.969757   66.943970
H   14.022779   76.043457   94.122498
H   27.127239   38.257008   99.206215
H   72.594040   39.652794   63.383598
H   56.450367   36.053680   12.981499
H   80.491928    5.311401   86.907074
H    8.720836   90.857460    7.397067
H   43.243259   88.296211   95.064987
H   97.095993   97.208466   14.751133
H   90.809029   44.912170   73.460518
H   85.220116   42.758934    6.119631
H   26.288956    4.756380   33.943073
H   98.508560    8.379049   58.159485
H   46.663906   75.571037   31.665411
H   31.930656    3.858595   11.811850
H    1.805784    5.665458    8.239071
H   98.360443   31.398283   51.263191
H    8.869362   94.879539    6.423506
H   58.721397   91.176041   16.628395
H   42.226017   37.742607   62.607109
H   14.278460   63.281525   19.896763
H   89.104668   45.364315   63.415424
H   58.690376   45.906563   79.738632
H   70.652542   84.923889   57.768475
H    7.512255   43.442398   55.035442
H   53.770973   65.964523   12.494640
H   10.413782   46.816727   93.415558
H   96.601280   26.642101   14.764740
H   48.271156   20.432526   45.822620
H   49.444382   22.923504   60.473061
H   43.256954   99.415092   68.458519
H   52.615704   34.270153    0.834300
H   19.036768   60.731995   30.145000
H   25.589006   84.187057   60.906864
H   17.558514   92.439583   32.583649
H   50.928421   41.916332   61.756760
H    5.809712   93.828087   80.625237
H   88.171432   70.146225   16.071310
H   37.698166   70.024063   56.481079
H   67.715218   73.190491    6.117950
H   21.904257   50.169258    2.646132
H   59.997208    1.808808   64.844223
H   60.385700   54.146034   16.083389
H   30.966299   16.155754   11.894762
H   19.537729   89.047829   54.664391
H   37.658310   74.242638   95.884895
H   17.105238   46.762993   65.417938
H   85.672852   86.720085   16.878580
H   70.556427   92.563042    8.791794
H   38.656075   46.037384   24.464090
H   29.010220   52.830307   93.146996
H   88.296577   95.912041    6.854339
H   20.175430   39.749519   63.426292
H   49.069733   94.363182   10.020735
H   21.365377   49.869568   92.830482
H   20.544334   53.877193   14.182495
H   84.560616   77.268745   17.223730
