100
TIME:    2.003, STEP:  2003
H   81.867828   38.335953   97.312210
H   45.553185   13.343859    4.348854
H   14.184599   18.007820   99.822350
H   81.812805   50.126976   30.371525
H   77.230362   33.306797   11.395527
H   96.956673   99.038094   77.109978
H   47.992496   96.588982   47.090065
H   62.454445   61.885838   24.284943
H    4.390434   93.713013   74.006172
H   20.103308   45.143471   86.124992
H   13.940842   46.837467   46.810093
H   79.392075   24.090487   50.353050
H   15.851903   40.523201   26.047295
H   55.904640   98.902046    9.668560
H    4.863431   91.111450   54.491180
H   20.988731   36.539497   66.775162
H   63.029251   14.458595   55.721809
H   43.947762   97.294579   30.106037
H   76.460304   62.383827   68.886887
H   38.553612   63.275272   52.706184
H   45.415771   56.813168    2.879871
H   54.408573   46.743668   48.703682
H   59.001091   78.331947   75.041779
H   32.941139   60.704563   58.315010
H   57.944939   27.318024   51.340477
H   37.474697   67.923584    1.431462
H   89.357903   59.216663   39.713665
H   63.533539   49.932980   32.980244
H   54.724182   30.819487   62.489311
H   77.797508   41.265884   42.620998
H   94.894081    1.664352   50.913280
H   92.227936   97.173347   13.836296
H   11.445826   21.933090   78.243011
H   62.732796   90.159836   87.368378
H   30.983967    7.508704   46.696388
H   46.707928   41.830357   13.754140
H   71.912109   31.182875   66.293884
H   81.203011   22.293507   63.786213
H   60.674744   37.749855   50.149574
H   74.532616   24.668837   95.625809
H   98.359261   24.911409   89.534348
H   51.602966    1.752175   96.904510
H   28.493849   75.511337   46.151779
H   51.453880   46.341385   76.576218
H   82.909828   52.861088   27.512537
H   52.246082    1.120941   91.303658
H   57.229908   33.791580   44.738716
H   56.346386   16.006124   92.512245
H   23.580297   66.559898   64.575943
H   67.897697   61.236340   43.571651
H   43.391804   76.266670   74.536163
H    2.475588   77.876114   42.569241
H   50.429695   33.622803   86.538780
H   30.308186   74.527641   20.203138
H   81.301559   34.098423   17.402723
H   96.072433   10.426891   24.439957
H   23.233629   31.751488   46.489464
H   76.909515   87.728729   61.963089
H   48.248528   23.400465   57.712860
H   26.841595   81.745285    6.640117
H   86.051193   85.423042   58.225079
H   27.821220    9.300339    4.723856
H   10.094545   70.563652   96.144455
H   80.582275   52.690315   72.761223
H   11.823825    0.867213   82.097000
H   78.297859   42.697914   64.618340
H   26.864454   17.612253   63.767223
H   42.004951   32.091553   61.957584
H   56.732979    5.863510   34.607971
H   70.962463   48.888893   97.515381
H   58.428307   59.116234   38.124607
H    8.811040   85.049301    3.271483
H   76.392136   19.230335   10.388027
H   86.109459   22.625383   84.164314
H   58.742798   31.493731   53.239117
H   73.012642   35.945992   61.151867
H   48.814766   52.940903   26.473101
H   26.084911   19.748991   25.057850
H   57.563393   47.634617   40.025368
H    1.294374   99.865768   48.360909
H   50.079243   50.003613   99.703804
H   91.610138   57.308670   19.287947
H   44.532673   40.688995   20.675602
H   87.958321   83.560890   80.477966
H   54.800186   23.595032   53.584030
H    5.189375   82.628838   80.877586
H    0.930556   57.718506   19.054213
H   88.199509   44.929459   74.918983
H   97.249458   82.648598   11.812481
H   89.246262   26.866264   95.821007
H    5.993636   81.587311   75.761429
H   26.489218   46.149853   71.686623
H   13.800449   87.649094   73.872604
H   40.825634   34.729176   61.869316
H   21.961151   70.313812   62.113365
H   59.361176   16.635206   63.991379
H    3.613967   82.628654   21.995132
H   14.219472   33.292023   23.987476
H   13.294870   45.484440   77.268417
H   63.634415   27.253990    4.767979
