100
TIME:    5.930, STEP:  5930
H   16.300852   78.210991   93.716934
H   36.702217   26.201567   52.011768
H   81.693756    0.532477   53.736225
H   82.471939   88.333649   15.118979
H   42.056580   48.073074    4.919275
H   36.062923   94.783684   66.014977
H   42.178661   61.760983   54.186802
H   53.799988    1.623042   63.722012
H    7.857216   16.148209   26.814157
H   12.791605    1.529507   39.901218
H   48.660873    4.849077   68.541069
H   29.509331   20.930637   70.825249
H   65.661301    2.991066   35.787041
H   61.462624   86.797951    8.514950
H   52.628944   40.335709   65.724457
H   63.091461   93.069435   40.799530
H   47.251839   74.193398   13.219641
H   27.877142    6.284981   93.961464
H   37.628857   27.123896   75.776703
H   32.752434   79.881874   20.074549
H   12.382103   65.867981   96.293877
H   30.895218   51.956146   14.283966
H    6.568739   46.393913   62.686203
H   68.076347    7.768282   66.661057
H   17.493645   15.880699   80.334267
H   19.514036   51.354736   32.787292
H   50.728867   95.973221   17.626265
H   32.185902   33.232048   62.789803
H   40.113304   87.108185   76.858124
H   28.375137   44.072380   54.806412
H   49.439171   53.809513   40.216209
H   40.180973   88.672791   50.294243
H   88.058342   34.614815   32.018188
H   28.658825   30.273521   21.929434
H   33.368454   10.656818   85.823975
H   88.122620   49.891975    0.782437
H   48.562820   87.365356   75.726173
H   18.895538   50.433346   40.904758
H   94.764099   52.211662   69.651283
H    4.654085   57.037266    4.594061
H   29.977669   59.653351   82.053932
H    0.465771   64.857635   82.696037
H   62.319401   99.060394   29.804543
H    0.694188   12.177755   60.539047
H   42.272030   97.925827   63.556499
H    1.579729   76.022507    7.252470
H   88.062790   47.331924   82.387688
H   56.556110   56.447052   35.492695
H   38.369125   41.326859    7.923045
H   50.247784   20.989744   68.911057
H   43.094410   97.139893   15.938878
H   93.319984   13.479427   84.768410
H   31.878208   56.392883   58.465054
H   39.365807   10.447419   93.491661
H   68.639488   78.282211   50.786488
H    0.981565    6.295938   90.755600
H   72.187126   18.439384   19.979927
H   84.495758   16.872259   60.812363
H   57.962257   89.325737   56.235405
H   67.698746   83.587662   94.947289
H   33.770069    2.800327   52.045658
H   88.450630   72.746475   27.040123
H   76.648857    2.630125   26.832550
H   50.242722   74.066345   66.143311
H   67.696533   87.225021   47.804340
H   37.056572   47.475151   96.811211
H   11.793320   53.376278   53.362930
H   70.740059   56.680515   49.690891
H   52.453777   23.694344   88.313171
H   50.524811   46.404488   89.246246
H   33.729271   91.923508   91.013618
H   85.011368   54.719849   90.788651
H   20.344318   24.984451    9.701118
H   99.669518   74.108482   50.812767
H   48.079540   37.095013   50.932510
H   65.850288   87.630302   96.916199
H    5.360120   12.572691   95.923042
H   10.582515   62.973625   41.932014
H   45.877140   36.100445   83.843559
H    8.712469   85.984169   10.046348
H   26.913034   90.630234   34.410709
H   86.275009   82.927704   90.896172
H   92.959984    6.289498   94.686325
H   58.123199   19.602009   21.803486
H   63.587425   77.960640   72.905426
H   14.810291   26.872124   53.580444
H   63.206017   72.193474    6.308779
H   51.399712   30.548697   34.092896
H   78.747177   63.999260   79.691048
H   42.047146   65.301682   36.200638
H   66.702690   93.634888   58.692547
H   17.058847   41.471664   46.515358
H   65.577911    5.447568   77.580582
H   20.379398   72.939400   26.649721
H   54.065926   18.555996   52.350803
H   83.715256   61.562286   61.156723
H   91.907127    7.991229   96.149323
H   26.831057   79.874283   59.834740
H   26.221375   62.412197   48.338089
H    7.547098   26.461826   26.484745
