100
TIME:    3.147, STEP:  3147
H    4.503872   33.425316   96.264847
H   13.730640   75.371033   76.511826
H   33.848846    0.312364   86.398643
H   82.004822    2.992941   67.666809
H   66.983658   25.003429   80.376923
H   79.221321   97.798714   90.403770
H   88.036049   73.838905   36.552437
H   72.538300   60.856403   19.246456
H   76.268669   83.722107    1.993822
H   88.842323   61.569618   30.923090
H    7.528748   92.869080   36.614643
H   35.728828   81.433624   68.922188
H   43.081436   71.309464   12.343088
H   99.260353   95.375923   96.727348
H   18.780025   88.924820   99.497993
H   74.990189   36.481049   71.812843
H   71.044106   90.120590   59.872173
H   68.393394   41.662132   90.442566
H   94.282936   10.372531   29.158533
H    7.734947   38.985172   30.594995
H   77.529282   42.923950   71.825974
H   64.086304   48.261673   51.282150
H   43.727043   69.027870   42.311676
H   26.651138   74.425018   73.350731
H   17.029545   36.586716   59.781105
H   32.229153   33.839634   94.203178
H   90.709473   11.659310   62.415264
H   67.006218    3.331016   70.796593
H   79.599060   34.612106    8.412359
H   21.663170   12.951928   33.565582
H   39.909504    4.253596   60.398323
H   64.460701   65.560432    7.930474
H   92.027679   38.232353   81.303566
H   11.069119   85.319038   39.172211
H    2.544541   21.031219   16.359299
H   46.173916   31.697893    9.822164
H   81.636971   89.285141   56.436581
H   33.920113    1.355307   44.515957
H   12.235652   12.849730   39.344238
H   66.780304   17.571413   85.633888
H   20.176531   64.162170   16.487654
H   48.786736   53.098686   50.649628
H   38.347790   82.371567   28.785065
H   78.402084   65.516174   88.430870
H   83.676384    7.728058   25.408453
H   37.486988   22.940998   95.946968
H   66.320602   95.981659   55.670456
H   56.407482   27.784597   63.296455
H   57.017372   71.814262   18.938444
H   91.882317   78.641411   63.557819
H   43.304523   65.820969   86.598297
H   58.070805   71.721817   67.468437
H   74.157463   40.256104   20.096050
H    3.818623   55.863312   70.685028
H   90.224106   34.379227   27.114325
H   97.503830    9.224493   85.495499
H   95.758629   98.741096   55.293358
H   91.724358   79.692154   32.497269
H   38.473656   71.737061   69.887306
H   51.348358   69.677780   74.102425
H   58.215981   32.222202   69.029953
H   87.221428   98.650253   52.964096
H   87.710304   92.537163   17.671249
H   59.139404   58.913399   41.700634
H   57.233814    9.497880   88.635231
H    8.020031   85.826210   32.259003
H   35.079262   57.160534   18.999563
H   62.980949   97.516846   16.647398
H   13.747263   23.662971   62.859699
H   94.144104    6.426953   95.106445
H   22.101067   81.277672   24.398510
H   14.482936   47.082382   87.030518
H    1.800721   62.640980   81.058830
H   60.936764   50.231735   16.172981
H   13.901608   33.124516   39.962315
H    0.052083    9.265429   84.176147
H   52.682713   53.786346   46.705860
H   79.832108   44.946331   88.236694
H   12.423829   44.274998   52.793831
H   45.190590   37.561405   49.804306
H   72.463333   61.838818   68.077606
H   77.447662   64.779861   23.627523
H   16.909399   59.785919   29.635990
H   66.657562   81.454437   75.986542
H   99.095917   52.038776   42.686012
H   78.864136   24.648163   60.320446
H   77.335732   74.540382   73.604385
H    6.614080   53.337906   63.014679
H   20.992470   18.952349    2.453207
H   88.101410   79.799759   36.715431
H   52.810822   43.360317   99.920609
H   11.138063   32.177979   93.489235
H   87.183487   21.942236   62.366783
H   51.397907    4.120964   39.004669
H    2.179399   67.841400   88.402184
H   53.850891   71.459785    4.902224
H   12.808509   48.280376   56.202827
H   18.418577   43.032501    5.681669
H   58.797600   50.415775   81.442696
H   34.683041   97.877968   94.578827
