100
TIME:    0.057, STEP:    57
H   13.467933   16.794006   99.093826
H   99.684624    7.835206   81.596069
H   80.743774   78.004707   22.670593
H   81.486176   30.302507   37.038895
H   94.660507   77.326324   64.159798
H   27.132450    1.151614   84.390495
H   49.982304   65.187904   94.909958
H   15.406210   93.533630    2.959839
H   52.226830   80.813019   96.498589
H   73.282890   17.205723    9.920671
H   94.953033   68.536041   34.259171
H   53.666462   26.547600   88.872078
H   39.636520   58.258820   19.463810
H   52.259769    4.901523   61.578972
H   81.196342   64.929581   48.033237
H   99.230103    6.752698   28.308750
H   19.483244   85.766609   78.544472
H    2.362873   91.928604   97.570114
H   46.151878   80.744949   66.364029
H   91.106453    4.337248   20.076670
H   60.894089   50.543457   55.694038
H   67.813332   44.175171   14.401886
H   84.982994   94.158638   30.720318
H   13.745655   37.365391    2.840846
H   27.544004   81.652306   36.979141
H   46.392338   25.916325   83.827660
H   57.164379   40.107937    1.097467
H   27.731003   59.099743   68.660385
H   12.410481   54.263332   54.477661
H    3.179715   89.428909   87.920250
H   18.343966   27.153711    4.901517
H   69.356384   50.935226   93.987328
H   74.373596   64.311821    2.931965
H   80.510490   68.498993   69.350105
H   79.355003   54.611435   28.199539
H   77.511009   88.963554   20.448202
H   85.267387    2.446321   12.955660
H   61.632332   57.910984   26.463915
H   48.158672   79.291206   36.663704
H   57.823917    6.846661   42.518845
H   31.346264   58.134777   43.680843
H   26.498337   14.414665    5.478337
H   11.732755   63.841747    5.590781
H   75.719818   13.727120   86.304581
H   51.710556   29.642990   60.985023
H   77.223457   64.275688   83.541817
H   36.681934   28.815365   28.110296
H   56.242458   95.968719   72.104782
H   66.693291   27.728458   42.200752
H   27.085257   31.616970   79.677994
H   43.534603   64.142067   54.027714
H    7.903539   58.450516   70.320969
H   10.061789   22.339233   99.558968
H   75.364487    6.272316   34.330952
H   36.221985   63.502720    0.889857
H   93.637558   12.472507   90.686386
H   99.866249   87.902092   61.408623
H   21.815687   71.503548   12.086796
H   94.773094   41.177444    7.107139
H   55.261757   32.169052   61.978546
H   63.296371   75.919296    9.952203
H   96.888092   27.414810   92.774979
H   78.099815    3.266187   29.647675
H   46.953743   42.104546   25.593336
H   34.583832   56.292492    0.869108
H   97.843910   39.439533   49.556149
H   82.995171   50.332180   69.814255
H   76.428337   20.797150   68.927528
H   59.744827   45.690666   56.658695
H   31.541492   51.011360    1.610903
H   20.222902   91.525948   61.463779
H   69.266258   49.633812   60.795971
H    3.274837   15.487698   60.288128
H   28.936348   45.773136   99.820930
H   64.918259   28.724802    5.718682
H   27.005316   11.225328   92.094528
H   72.130890   21.603786   92.040344
H   34.658295   46.992985   17.587875
H   64.286781   53.332783   18.324024
H   96.730057    5.849433   16.010431
H   11.997587   29.870565   83.395523
H   45.601002   44.599808   82.014221
H   21.402519    8.208741   35.328735
H   54.091705   17.039158   58.223885
H   49.555702   45.320297   42.226692
H   49.987370   11.142211   45.743336
H   70.961617   99.208549   26.261181
H   56.872757    0.730619   95.145500
H   56.866158   90.998878   27.734699
H   61.295235    6.941847   26.249510
H   26.355257   76.508560   34.665478
H   82.504051   99.793739   34.611084
H   88.941521   29.339346   23.324423
H   52.737701   16.689661   30.662273
H   55.606220   44.624363   17.397224
H   98.629517   93.480766   64.504784
H   58.077873   70.951515   33.910759
H    7.074689   16.722992   55.123131
H    5.996668   37.095997   40.276974
H   42.781414   77.238533   92.195908
