100
TIME:    9.936, STEP:  9936
H   45.390533   10.843493   90.049332
H   26.067913   43.282078    4.600893
H   50.561558   88.739922    6.705933
H   83.144333   23.287760   95.536026
H    6.164202   69.171204   96.300911
H   73.942383   90.443687   62.742081
H   32.224712   32.264618   67.461319
H   38.936295   48.191578   95.902672
H    9.382027   30.986118   74.652550
H    3.369035   59.051243   96.755318
H   76.032440   66.037628   82.660728
H   76.612770   21.730198   85.674019
H   10.163902   60.574890   37.695610
H   63.110184   74.450356   13.373516
H    1.288836   82.500336   73.076439
H    2.016957   42.690109    8.265750
H   25.113106   39.159576   77.901627
H   13.542800   11.353081   55.094810
H    0.026306   95.179382   86.840195
H   24.823032   94.810760   92.821709
H   74.659897   67.058784   87.561859
H   14.954346   57.274170   73.136108
H   53.081909   13.818913   48.092209
H   95.859970   55.691620   69.141617
H   74.216293   98.185165    9.914665
H    0.755180   33.190231   55.860645
H    5.286201   29.448557   97.108810
H   94.171150   20.218601   95.202538
H   27.219997   50.563480   87.492447
H   81.983757   44.923630   73.272194
H    7.098844   13.036486   23.274399
H   93.122543   77.989166   79.438805
H   70.236977   41.516968   92.910301
H   97.921158   63.147575   53.163185
H   33.676308    7.375321   29.567442
H   36.356403   63.665981   88.189949
H   32.790977   40.657967   91.383377
H   53.317272   77.122963   23.597237
H   25.669697   64.928307   81.440437
H   27.333637   82.007874   19.778074
H   56.196060   97.112305   76.432335
H   62.861641   80.572708   87.199944
H   96.796356   23.093029   19.160625
H   44.905346   79.424599   52.221722
H   94.753693   39.837681    6.347385
H   49.875443   52.424816   23.527456
H   19.373928   65.196411   20.847815
H   56.794064   97.707581   83.360565
H   55.467056    9.553972   48.102020
H   34.339310   81.974724   88.807899
H   46.607410   10.671143   52.349869
H   88.018326   41.752151   21.799219
H   14.965277   79.621033   25.804592
H   46.594177   45.090446   70.264595
H   49.676003   29.348085   84.845917
H    5.971035    2.082016   54.381897
H   26.151436    2.847087    0.983635
H   86.201126   38.554787   57.626854
H   73.912697   58.604294   48.698727
H    3.346256   91.501709   81.007118
H   86.474670   16.501516   39.714443
H   46.269859   35.459183   45.783600
H   48.643932   29.313944   52.150406
H   25.327053   95.888580   57.379898
H   26.699120   67.271950   20.864931
H   90.965973   48.325554   33.678722
H   90.384193   91.875793   46.772655
H   94.018135   85.787483   41.200867
H   52.112160   35.848740   37.064472
H   31.819962   47.702847   80.769531
H    6.510232   19.350040   42.968025
H   55.060898   21.686913   84.350189
H   59.146759   26.835039    6.988338
H   11.481884   20.571236   12.790457
H   41.097267   42.945484   54.655766
H   60.554054   44.377544   27.362919
H   69.183540   65.815231   66.962242
H   98.783379    1.039219   63.179825
H   37.980324   24.333553   28.544001
H   12.255076   67.758186   64.925972
H    5.328975   32.074841   73.844627
H   86.885124    8.915994   55.757233
H   46.347633   73.283363   76.197845
H   33.730259   62.404373   55.916534
H   68.531387   27.363708   84.570587
H   22.612911   74.021263   31.769337
H   30.757891   80.923698   97.329903
H   15.825769    9.988999   92.562714
H   61.885014   40.951256   46.927132
H   87.863007    0.480424   79.403687
H   30.645376    9.945834   43.292259
H   13.462282   42.761307   22.846773
H   22.370121   25.644033   87.370720
H    3.749654   15.691548    2.588521
H   84.802719   59.724220   44.403633
H   14.594497    3.371097   54.241638
H   73.929466   37.884262   65.759567
H   19.098528   78.093140   79.408653
H   35.384758   79.708244   12.792904
H   56.373436   23.661682   40.573765
