100
TIME:    9.549, STEP:  9549
H   71.562164   46.332680   90.403641
H   36.755417   22.309933   80.200493
H   43.909405   60.897133   11.249208
H   83.079376   39.232475   16.748949
H    9.632002   38.151443    6.793869
H   79.942017   90.862953   24.414989
H   52.505955    6.131373   37.197414
H   69.353729   14.712294   31.436249
H   18.895226   68.194519   99.011299
H   13.940722   53.494495   81.602699
H   12.030304   50.465744   19.939238
H   91.381554    2.332747   13.220940
H   34.841705   84.000191   76.153839
H   82.272400   75.643196   83.923210
H   96.588142   17.069069   91.689476
H   17.578388   76.538437   40.390686
H   56.233253   13.563627   42.671494
H    5.266730   30.184425   68.509354
H   93.997147   78.946121   66.438431
H   35.248577    3.030169   66.472923
H   97.625031    5.584316   98.067123
H   77.852280   56.760422    6.092703
H   58.249290   16.967878   59.142578
H   31.817753   51.061981   97.881989
H   88.057968   28.877022    7.058048
H    2.580795   44.598984   92.278374
H   38.657982   45.536907   89.432114
H   26.825060    2.154745   82.411980
H   18.805157   15.452135    5.786244
H   67.144112   54.501785   42.506355
H   91.868431   78.332672   53.892609
H   68.687027   88.683395   15.265282
H   42.976524   69.832169   58.046288
H   81.569794   98.613914   69.467308
H   43.307610   36.676674    6.020933
H    2.716039   33.351887   89.406410
H   95.672607   54.830330   60.889179
H   69.312355   84.203239   96.288353
H   42.006298   73.360863   18.943325
H   63.783375   18.237137   89.330154
H   82.645233   83.831619   67.314781
H   95.476036   79.049576   67.452782
H   93.465851   20.770828   91.207237
H   69.614784   72.928932   14.384463
H   28.351225   55.150852   73.247757
H   54.868248   45.043377   21.955210
H   16.347538   44.147663   17.131998
H   56.770443   93.721603   59.415180
H   44.155663   41.601711   63.562813
H   26.216772   76.081383   15.866497
H   44.452030   47.870644   51.623535
H   69.210419   77.663208   47.203773
H    6.937962   77.377075   48.282143
H   55.555244   51.406006   53.186897
H   80.489082   95.433182   81.556747
H    5.489027    2.489102   67.556290
H    1.618070   14.014296   64.176811
H   15.017875   75.101768   67.594749
H   43.388973   42.249977   78.409065
H   28.883450   61.757236   92.014320
H   62.062542   34.498737   69.886238
H   60.005241   39.061325   63.295326
H   22.341877   55.676537   78.666870
H   98.752136   93.780441   67.887024
H   11.338344   98.179512   84.825188
H   14.739534   67.564537   10.796090
H   21.434479   78.494720   28.088448
H   20.751190   63.654976   22.700027
H   32.822983   63.656097   61.337597
H   23.960205   28.266039   81.590347
H   18.800854   45.684063   47.609474
H   86.930168   34.536522   55.982677
H   84.379471   45.976986   16.911945
H   20.000065   45.063541   35.783882
H   22.455462   42.375637   25.313070
H   51.404022   19.573696   53.401947
H   34.036079   99.309250   60.098778
H   80.601418   26.342873   41.806129
H   19.423384   25.470295   24.224382
H   31.232903   88.839577   98.266457
H   97.753166   28.071146   50.714149
H   57.844215    6.403586   88.134422
H   21.868441   66.811317   39.341824
H    7.105504   29.288162   91.264091
H   87.374725   51.571877   22.085459
H   31.520832   59.806694    4.894689
H    4.910999    9.061898   78.876305
H    9.602478   40.956520   96.572311
H   53.854008   62.499153   50.092293
H   22.078733   16.403664   65.567917
H   14.807705   89.048584   35.119530
H   84.828201   13.655685   15.474191
H   97.562943   14.031553   57.443413
H   68.531410   92.377121   73.139610
H   91.493256   94.387825   35.510475
H   82.629822   18.652658   74.230576
H    4.647946   15.676061   88.016083
H   19.845530   58.943516   87.179832
H   53.820641   78.037086   45.209232
H   32.336517   33.592434   77.854843
