100
TIME:    5.171, STEP:  5171
H   67.628822   47.814247   94.411819
H   57.664589   85.072678    4.153173
H   68.641495   45.926102   62.648129
H   82.344543   19.605289   56.724091
H   48.854874   87.235962   25.497345
H   47.835438   95.605965   90.847557
H   81.957664   10.507559   94.831940
H   13.455894   35.958973   33.409893
H   26.514885   89.122742   74.591713
H   33.529457   90.631264   10.179159
H   19.261200   74.309021   41.652531
H   58.480255   82.886269   24.851328
H   14.094772   48.890068   11.205322
H   99.044334   89.137398   50.756248
H   43.398552    8.133084    2.206166
H   93.608505   59.454483    3.802585
H    8.286049   23.992550   44.124878
H   11.646169   43.214359   20.272238
H   25.808498   95.281815   35.790142
H   53.199432   96.003212   68.398354
H   57.422249   41.428291   16.894833
H   58.129150   50.948563   78.919876
H   16.703728   52.566811   84.401367
H   38.597492   98.688446   23.029331
H   44.638947   76.073975   74.728859
H   22.973986   73.791214    4.160861
H   16.177382   27.524128    2.565657
H   96.228279   97.804520   37.698654
H   23.609779   18.245638   12.736488
H   99.273102   62.857445   94.468666
H   19.566101   85.749054    0.265877
H   92.257423    9.644465   20.558647
H   34.595318   90.147728   63.641472
H   96.587997   99.831535   53.904823
H   52.234589   68.032120   39.605583
H   22.143702   90.443275    3.169462
H   75.764679   15.162292   15.919723
H   50.264004   64.325127   87.344780
H   26.802570   68.749931   43.203690
H   76.142494   28.091324   44.878170
H   81.850739   33.612526   64.172218
H   66.880455   43.935448   45.735302
H   55.781689   94.508896   74.979988
H   49.157017   99.437805   86.329025
H    8.110136   27.870728   98.606468
H   11.374060   61.545734    4.168518
H   82.133102    6.053956   75.102974
H   56.515575   48.629593   88.530128
H   16.184914    4.188360   38.200752
H   34.329121    9.437277   21.997971
H   43.150105   70.416748    7.937563
H   56.433159   83.909439   34.595612
H   16.133266   51.991943    2.544851
H   56.940613   22.833099   59.998192
H   29.072643   11.766347   44.329845
H    0.036143    7.094333   16.593765
H   24.071129   40.339851   47.792625
H   41.011856   88.550285   80.361801
H   98.103310   57.256607   14.502136
H   17.786793   25.248196   16.535042
H   85.891022   38.096561   11.224721
H   15.387522   79.811142   61.384827
H   25.119135   54.423508   78.879456
H   98.122414   69.931778   86.746658
H   37.568176   47.845318   77.121620
H   83.683372   85.207420   51.933205
H   72.689392   27.138031   16.718105
H   23.169594   13.272101   13.406302
H   14.623121   78.231255   35.916718
H   35.150475    8.227842   90.844482
H   57.830208   43.565506    0.116642
H   47.594139   79.909439   35.217995
H   69.832413   62.525627   29.163696
H   16.375919   22.146770   95.910820
H   11.486596   36.012150   93.394501
H   47.905472   38.985359   47.986271
H   36.448086   78.358833   82.500175
H   74.923309   12.600960    0.013512
H    9.482266   38.329868   75.377541
H   45.929642   27.329281   75.434998
H   12.060246   82.778030   89.047844
H   29.311974   77.998123   54.381859
H   44.952698   93.596741   22.403349
H    5.906916   54.652878   91.126343
H    0.543772   25.435532   46.481895
H   32.280865   98.992851    0.873004
H   12.514135   27.379105   70.116745
H   39.190460   91.292252   41.967377
H   62.996445    6.259617   85.898689
H    9.152369   96.525192    9.069082
H   35.641319   52.649845   42.663860
H   60.900532   84.388153   32.055954
H   16.924364   82.677162   18.885944
H   47.025055   26.891676   75.471764
H   67.187675   86.542809   34.909184
H   21.025024   91.535004    0.359844
H   52.152519   64.433769   39.800232
H   25.846128   60.265656   73.286583
H   62.378571   59.140446   11.911003
H   60.400295   45.936810   99.601227
