100
TIME:    8.950, STEP:  8950
H   12.070342    1.264127   90.952042
H   53.298843   89.851028   42.431339
H   33.613178   17.802715   18.280937
H   82.978836   63.910515   49.583389
H   14.999475   90.139221   23.034039
H   89.228271   91.511894   65.095337
H   83.900230   65.686150   90.354820
H   16.433945   62.889545   86.434425
H   33.619789   25.786526   36.716465
H   30.303633   44.893742   58.149422
H   67.747833   26.364059   77.639671
H   14.243576   72.307899   55.858101
H   73.037827   20.256569   35.681175
H   11.931283   77.489479   38.339382
H   89.312691   70.574715   20.495705
H   41.663696   28.929344   90.112366
H    4.401203   73.942924   88.142159
H   92.454239   59.331932   89.275467
H   84.665192   53.818371   34.882175
H   51.385273   15.750784   25.690180
H   33.171028   65.217438   14.326292
H   20.425562   55.965240   57.103104
H   66.246803   21.837221   76.280106
H   87.473938   43.896210   42.369465
H    9.481616   76.381058    2.636477
H    5.406345   62.257492   48.647556
H   90.310448   70.437698   77.550095
H   77.366211   74.195450   62.614388
H    5.779838   61.105953   34.099937
H   44.175255   69.326889   94.888336
H   68.296333   24.619846    1.283576
H   30.865650    5.234700   70.717751
H    0.782059   13.657917    4.083638
H   56.261093   53.508575   94.702888
H   58.214973   82.029427   69.579071
H   50.645496   86.434479   91.289253
H   38.220528   76.766365   13.690202
H   94.072655   95.162117   54.016861
H   67.291557   86.412804   76.991043
H   20.203829   74.314857   42.202126
H   23.582151   63.275887   53.202602
H   45.956696   76.700592   36.874348
H   88.310883   17.176517   47.940105
H    7.857459   62.874405   55.816990
H   80.309235   78.779503   21.987261
H   62.596130   33.618359   19.521681
H   11.664338   11.569513   11.379726
H   56.733883   87.552094   22.352421
H   26.647964   91.211647   87.454895
H   13.644468   66.959648   57.749737
H   42.887043    5.578461   47.775421
H   40.099468   33.245121   86.524117
H   94.514839   73.903870   83.070999
H   69.427002   61.181252   26.754429
H   28.182930   42.940247   76.465759
H    4.742973    3.119192   87.947662
H   63.641510   31.298195    7.206922
H   59.620300   31.670527   83.023094
H   96.145714   16.938066   24.393690
H   68.409950   15.714414    9.051292
H   24.273619   62.352932   16.584209
H   81.264915   44.636734   90.395592
H   81.676605   96.550682   19.742096
H   57.621365   90.517456   84.147110
H   87.564041   46.022663   29.043554
H   51.536201   97.342705   75.378212
H   69.493179   57.784817   99.167343
H   62.128036   29.398029   94.064362
H    2.967538    6.696404   98.903381
H   11.794845   98.180801   82.860809
H   37.824207   86.441444   54.793526
H   36.256599   54.425194   12.077682
H   23.435104   75.606133   32.271740
H   33.184536   82.974037   71.375099
H   93.602203   41.493626   79.896713
H   37.241570   81.184441   93.708206
H   79.633621   51.155849   49.473511
H   52.461185   65.507835    8.723845
H   90.698891   27.229748   17.538462
H   60.608849   21.470507   49.870689
H   86.026527   21.874216   14.912677
H   12.897299    2.515081   38.247017
H   83.981651   56.793858   82.295921
H   65.893578   78.030006   45.972630
H   16.540512   89.044418   80.151581
H   45.308544   37.802109   63.298370
H   64.905113   52.614250   50.313759
H   99.969658   88.886757    2.780354
H   41.423588   95.851067   54.991341
H   75.039169   41.049713   44.157097
H   90.293541   56.703106   22.469749
H   40.508266   68.604980    4.062685
H   59.165745   96.058769   11.121821
H   12.248449   56.159046   30.282366
H    1.849222   48.043728   21.747316
H   33.154922   42.305725    5.169712
H   52.193260   81.300987   22.465759
H   21.001741   29.306812   99.208092
H   82.355766   75.450462   95.380486
H   95.130997   48.961369   35.558277
