200
TIME:    0.819, STEP:   819
H   27.262514   60.553417   25.240118
H   33.124695   41.330898   13.402670
H    6.002346   94.480888   73.867058
H   37.359467   83.741249   29.358990
H    9.062752   98.403915   45.333874
H   70.782715   37.100025   48.411854
H   11.747901   54.893311   60.858356
H   15.863692   13.887774    4.520548
H   10.941792   78.825996   33.594719
H   90.479309   66.787994   73.234398
H   32.374763    6.962614   11.258614
H   33.172043   57.477184   40.330563
H   25.385014    6.224282   37.561302
H   77.037415   55.649769   70.166222
H   91.667923   76.401764   41.553974
H   12.423755    2.110103   41.832752
H   11.444310   34.835815   87.320198
H   22.813700   11.001848   33.212318
H   84.289787    8.740348   51.007244
H   91.898315   71.753319   15.025789
H   65.033676    5.661265   99.314186
H   77.139000   70.945641   48.262306
H   77.666840   58.331657   35.243423
H   20.872091   93.337997   89.770523
H   28.412727   35.990475   24.750080
H   18.181803   88.032265   87.833542
H   10.108501   70.414574   72.361664
H    7.798560   94.014420    2.254781
H   35.454956   38.930733   34.947994
H   66.885048   36.275314   78.597321
H   12.605561   75.639046   16.902704
H   21.397133   77.076645    7.858557
H   13.133331   21.444077   80.251442
H   77.263786   64.209610   48.410606
H   20.202400   65.876266   29.814373
H   14.148021   36.720493   86.115860
H    2.882685   61.932121   90.301674
H    4.275446   59.732574   89.134926
H   31.641350   25.667795   57.301785
H   84.530052   37.307499   41.079193
H   80.676590   78.176125   20.742588
H   42.158554   30.965515   22.662237
H   66.276749   74.481079   71.827866
H   35.991379   91.355186   39.455696
H   48.560238   93.960411   65.258308
H   32.911861   98.770142   48.984909
H   90.885178   97.845322    8.873294
H   76.019836   65.541771   26.832779
H    9.472365    6.780150   61.583778
H   41.397491   20.414408   81.217506
H   64.434723   63.167618    4.922677
H   99.005135   45.663677   75.990013
H   67.793785   77.864403   15.494224
H   13.789170   94.402283   90.277374
H   52.691055   63.508156   72.047913
H   97.883598   58.085293   97.607788
H    3.778111   18.936501   43.443699
H   73.734421   72.039268   94.852516
H   15.963684   85.662369   21.130054
H   29.711884   92.737953   56.290825
H   48.544323    4.079960   25.319559
H    0.342913   17.796492   53.505035
H   87.398613   37.200386   65.351089
H   38.155144   65.978394   16.594990
H   80.655876   84.710709   41.606312
H   16.026760   39.055382   43.270737
H   64.547462   10.948698   97.797493
H   94.099037   92.766319   98.734756
H   37.117325   13.677602   54.651306
H   41.904022   51.721581   50.951672
H   58.211163   86.606422   88.768814
H   15.867830    8.602987   40.711845
H   95.870255   35.672970   80.107704
H   26.728611   96.237946   77.429054
H   86.195236   10.244241   40.388161
H   67.948669   98.635468   59.093952
H   92.980331   51.504993   63.955666
H    5.110017   16.513214   28.168663
H   15.934723   55.486382   22.107128
H   59.550560   87.437813   66.802948
H   67.942200   20.316360   92.537582
H   52.096024   58.177155   69.957848
H    8.740755   20.017445   73.338913
H    5.792944   80.792656   12.722281
H   18.289913    5.446557   41.373692
H   40.979031   65.516037   15.729905
H   61.805347    3.990617    3.098746
H   70.516502   96.994827   33.280743
H   83.408066   73.466454   79.255920
H   20.544094   12.000258   48.495586
H   16.971994   39.891106   78.179131
H   80.022324   93.615494   11.001499
H   74.765617   10.332048   79.239601
H   34.064484   73.632019   85.002960
H   39.795670   49.094116   92.054474
H   45.294319   40.654545    1.838430
H   87.159767   94.252083   23.265274
H   93.188507   37.812817   54.527805
H   23.898170   63.977959   54.933140
H   77.271729    7.335401   27.391764
H   35.699184   96.435120   96.204109
H   12.101883   85.416313   62.670807
H   35.181526   16.009678   38.593552
H   49.697212   69.008499   13.155686
H   24.571213   19.863728   43.859360
H   10.345680   98.425255   16.782654
H   90.875717   36.908566   53.112381
H   61.339226   56.505039   96.352882
H   87.510986   32.781033   27.130192
H   22.966276   19.987555    8.371038
H   54.812382   91.035339    1.203220
H    9.242202   77.905212   97.106369
H   47.037785   86.993553   81.341309
H   61.262840    6.914848   60.023693
H   44.528465    6.078682    6.471045
H   90.409409   88.860191    5.054731
H    8.769299   16.595650   90.929916
H   37.833530   55.495461   22.404869
H   40.850704   79.451729   54.924316
H   86.062485   58.230831   70.942444
H   46.597603   25.607006   68.547012
H   93.307060   13.763943   65.219368
H   46.195442   97.402725   41.205772
H   95.546959   46.483715   92.509727
H   59.591255   94.616760   73.663620
H   68.934685   78.193733   14.351984
H   80.994682   51.893387   48.693787
H   62.763931   92.111076   39.892658
H   99.593018   31.525223   71.695435
H   95.809059   21.405024   76.365707
H   71.981522   64.512177   25.538197
H   59.475967   91.794022   22.981228
H   90.547096   10.764194    1.682695
H   72.529808   27.847878   56.832981
H   33.029064   90.900864   29.810768
H   46.936867    0.883758   75.151566
H   69.851295   88.039940   84.162323
H   96.157021   46.142662   74.049896
H   61.447311   52.430763   71.413147
H   43.761581   81.321480   79.369247
H   79.282295   46.041721   33.613266
H   30.583647   58.603199   59.744316
H   36.392704   67.417305   79.854836
H   31.182060    5.568826   87.719063
H   67.517662   50.564552   68.001602
H   67.155121   71.950714    2.115759
H   58.425255   94.242195   43.136147
H   26.842499   51.866104   65.503075
H   80.663910   40.618023   92.188560
H   27.918867   94.996124   68.329491
H   55.812634   71.143127   46.973160
H   58.160480   91.088303   30.007778
H    3.073465   10.188816   83.139702
H   25.215364   14.432961   61.644135
H   36.572075   69.170685   71.227600
H   80.690277   44.964565   71.875175
H   65.371964   78.248070   87.611618
H   54.277927   27.370064   23.288923
H   85.881882   99.552582   81.132034
H   57.188278   33.319458    0.460658
H   59.643375   60.886627   68.021179
H   16.418674   20.055769   30.527996
H   90.142433    9.325609   36.991302
H   32.527840   37.188934   46.427471
H   53.410324   41.734837   15.513629
H   21.889334   46.016449   59.136742
H   64.929718   88.202034   58.359703
H   24.138008   57.275845   71.955124
H    1.940786   26.287285   35.489742
H   52.895748    6.090334   83.883240
H   68.303772   12.519471   35.927483
H   26.160542   43.941051   59.236126
H   48.860058   52.574318   74.132584
H   64.096222   60.689571   87.672646
H   44.526947   90.680969   72.006866
H   18.781395   50.791195   23.849789
H   29.469688   71.009132   11.127682
H    6.861602    9.753036   72.283798
H   60.793900    7.919355   62.363472
H   58.758343   60.665993   94.552811
H   70.846931    5.938403   28.257521
H   30.906219   30.812832   90.753517
H   38.975273   89.555931   17.538155
H   64.090141   26.291710   98.491081
H   93.010490   63.221352   76.011429
H   11.381490   41.109436   86.852028
H   51.513092   94.607132   12.094418
H   62.604561   91.750069   45.786686
H   89.850288   63.755386   73.160706
H   60.142490   55.123692   73.018265
H   75.479027   11.868206   75.166756
H   42.906399    0.664075   17.249506
H   16.961361   31.298643   71.070694
H   24.988441   86.638649   44.981895
H   65.025055   28.393709   19.922316
H   76.741714   11.804198   21.633791
H   13.309957    1.347398   23.009443
H   12.082307   85.898804   30.637722
H    4.192213   13.231983   52.122154
H    1.968801   15.376271   89.704674
