100
TIME:    4.219, STEP:  4219
H   32.007965   35.117462   95.283401
H   83.957314   33.485252   44.127541
H   52.275482   77.435951   73.819786
H   82.184753   58.827629    8.904639
H   57.381851   10.928958   51.309784
H   62.601490   96.637337   96.567436
H   31.852974   46.225376   20.384302
H   88.281212   53.598270   20.818989
H   49.916862   80.653687   34.515705
H   59.546181   76.961952   72.902679
H    7.813919   36.002995   33.354321
H   94.811806   35.167152   92.616447
H   74.844040    6.458462    5.801080
H   46.180519   92.071724   78.308197
H   31.820980   93.169586   47.969570
H   31.888371   42.719963   82.827087
H   84.840187   61.023418   57.460564
H   91.293785   89.530556   53.276142
H   10.980709   55.347260   85.635666
H   78.849937   16.220984    3.581767
H   13.915268   36.202763   42.732101
H   66.859985   49.684769   59.991455
H   29.414299   60.309364   11.639085
H   27.050713   87.281952   93.732910
H   78.688751   51.572472   67.698097
H   27.313738    1.929243   93.683098
H   98.269417   67.100235   83.680519
H   76.554382   53.368362    6.227845
H    2.908581   31.872314   57.737617
H   62.768341   86.419212   18.786926
H   82.099968    0.381989   75.585091
H   32.147320   35.944893    8.690056
H   67.539162   59.800087   77.877792
H   56.364487   87.076630   94.012123
H   75.898041   39.996147   81.635803
H   39.387791   15.879425    6.164404
H   84.455826   50.027328   40.905933
H   89.613396   81.742241   20.165073
H   66.989227   89.493584   35.459450
H   65.809853   17.214378   69.977417
H   46.912659    0.949825   41.743511
H   52.441452    1.207891    1.014077
H   47.581554   88.800034    6.217144
H    9.947592   83.476624   93.246338
H   90.688667   65.428925   17.141935
H   23.656788   43.387775    0.298504
H   74.695602   54.281639   65.965889
H   56.464733   38.824295   29.625710
H   88.356369   83.032013   76.177612
H   14.362628   94.949760   88.582253
H   43.222736   62.326317   97.901276
H   10.168394   72.248306   97.091461
H   96.387199   46.471924   57.837543
H   78.989311   38.369049   17.989151
H    4.871308   28.331232   36.231396
H   98.845139    8.095831   49.002090
H   63.716526   67.809212   57.249474
H   11.900245   78.455025    4.882748
H   23.020483   17.031746   87.588341
H   80.607986   52.075275   43.612190
H   25.838648   82.368675   85.449409
H   49.174065   88.672226    4.456574
H   60.489498   19.386066   44.160973
H   32.750290   64.745865   12.592602
H   99.780769   23.879101   88.465889
H   42.165199   32.533730   95.644012
H   49.070480   94.224945   70.755478
H   88.930458   58.826492   67.895195
H   67.178207   46.635895   95.623505
H   15.863684   60.347588   92.849121
H   88.059578    8.338816   11.537487
H   26.091599   11.504731   65.518456
H   31.905359    9.618397   53.575256
H   37.333996   82.393257   52.475151
H   65.584480   34.653934   21.226961
H   25.396868   77.971764   12.044790
H   50.013245   60.872570   65.664116
H   30.196621   74.851311   47.440300
H   63.827171   41.126194   64.758766
H   92.617371   79.178719   57.450584
H   93.433548   72.929153   32.148067
H   57.882607   71.780838   33.987793
H   84.732948   77.680939   31.738934
H   40.410469   73.187935   78.076096
H   46.899384   84.983818   38.767609
H   54.193890   64.027885   34.763489
H   48.932198   96.597244   24.721846
H   23.867071   67.510918   51.867096
H   43.240585   59.264900   93.684822
H   93.322037   35.694901   75.035049
H   96.681427    1.246216   22.559366
H   90.459702   12.791578   13.917883
H   55.899559   54.109108   45.266277
H   55.010899   69.147552   11.284536
H   83.646049   71.817955   13.035375
H   42.393707   29.127056   49.532173
H   27.717735    9.800313   94.550110
H   22.352537   52.159943   88.524742
H    7.729734   55.036747   91.650978
H    1.270367   70.364784   91.310303
