100
TIME:    0.375, STEP:   375
H   91.963051   87.631966   98.802689
H   90.838890   25.076626    1.655414
H   86.207458    0.883252   18.936752
H   81.539551   17.200098   19.607889
H   91.812210    2.815423   55.537270
H   22.201305    0.805509   15.882801
H   33.317097   86.659309   19.778261
H   90.412033   21.044575   73.763390
H   44.409782   50.238708   76.482872
H   64.592430   21.770519   22.374086
H   65.373444   81.331543    3.627935
H   41.528446   42.487389   66.236122
H   19.408974   39.019470   87.856956
H   36.514072    3.921056   85.777611
H   85.063622   36.526596   32.746082
H   86.445786   78.937447    1.911588
H   93.917122    6.796358    7.497943
H    9.158120   76.464340   86.545700
H   51.103645   94.083908   83.119003
H   82.498482   97.669403   41.771278
H   42.023514   18.884659   47.064232
H   98.305153   44.594894   87.325020
H   80.737236   91.572365   21.621052
H   84.199951   41.179295   79.224487
H   16.171438   56.434200   39.327652
H   44.939510   16.435722   54.024170
H   29.741735   26.888329    7.407573
H    0.900157   73.942917   79.170456
H   19.325317   83.115074   39.445251
H   15.372926   81.558487   13.200146
H   30.853182   55.670647   79.737572
H   89.435181   42.150146   64.548454
H   96.771790   41.045067   31.579916
H   93.946495   39.356110   55.952919
H   71.450615   30.573166   47.562622
H    5.159589   13.943838   19.354010
H   15.766732   90.802101   38.013744
H   48.489891   52.090656   48.903355
H   33.861385   72.502846    6.184191
H   27.872959   77.077415   67.539360
H    9.615261   69.046288   51.175213
H   97.918297   28.687624   20.418127
H   14.471269   65.748703   28.560089
H   55.412964   19.056154   17.397427
H   24.127338   17.096169   88.196960
H   73.162086   70.253716   84.788857
H   40.039722   45.970654   30.827581
H   56.259441   99.244019   91.780838
H   75.990288    1.392566   29.514666
H   33.754734   36.457134   57.435791
H   43.516010   33.440132   57.370823
H   23.356886   28.941410   49.444702
H   16.657938   24.183105   81.091133
H   68.003555    1.083394   48.363789
H   10.905258   91.379196    3.588188
H   94.035446   12.137836   79.860916
H   20.025604   78.726402   91.652977
H   98.135681   41.472694    3.895515
H   19.852715   54.613449   82.694885
H   34.272362   56.612534   52.943687
H   83.355759   61.129974   85.157715
H   85.601654   24.454910   78.387924
H   99.668266   81.581139    7.831531
H   68.790962   43.834389   16.958677
H   47.207077   30.893208   30.483881
H   78.308571   23.630756   68.358788
H   57.481804   61.325054   85.166916
H   54.461998   38.984299   84.129768
H   75.593071   22.841209   36.713337
H   37.983002   67.006493    0.942196
H   10.124063   69.889565   57.649876
H   43.046398   39.080070   84.077614
H   82.540833   99.758949   52.133846
H   21.936913   25.648626   80.921242
H   80.251511   29.177279   29.825867
H   34.523945   31.606180   70.695908
H    1.002095   94.041862   97.669006
H   49.598511   26.200066   35.150158
H   79.527840   52.403568   21.869839
H   81.134781   88.531151   88.614655
H   18.220264   33.161205    2.401869
H   69.460533   46.676590   55.422859
H   41.523197   13.516545   65.616760
H   75.966949   44.250828   29.178047
H   34.070801   25.427132   11.400355
H   42.662373   22.828213   67.824379
H   92.200111   76.087364   41.424603
H   61.991928   75.270653   91.841087
H   63.465279   73.292854   25.132656
H   33.181038   93.856384   37.617825
H   39.369114   93.680832   41.381054
H    6.032928   23.709505   40.669174
H    9.344891   38.867165   47.925987
H   83.473030   35.978996   52.102215
H   50.108570   16.138966   24.703568
H   24.895081   80.923027   48.079765
H   32.836235   89.200996   15.622446
H    8.242032   19.430573   50.035500
H   90.848045   38.466770   13.640301
H   62.530254   69.072121   61.568222
