100
TIME:    3.416, STEP:  3416
H   86.312408    8.756735   96.018570
H    6.247476   89.954727   93.480301
H   38.472694   19.664616   83.242195
H   82.049973   91.910210   52.921490
H   64.574249   46.564968   73.083023
H   75.051033   97.507286   17.043676
H   73.936699   92.001823   57.588585
H   51.395432   84.129288   94.547722
H   69.656136   57.858932   85.062111
H   81.490959   65.432060   41.457581
H   82.507034    3.692826   10.703421
H   25.461136   94.917282   49.774162
H   25.970989   55.034668   85.606285
H   85.940880   94.546791   17.198757
H   22.052429   64.896408   86.568459
H   64.174530   12.953333   49.483742
H   49.412788    7.913391   84.360306
H   74.139854   28.580727   81.116882
H   98.473747   21.658167   43.329716
H    0.488248   33.273602   48.909782
H   61.566437   16.143394   64.523865
H   89.875595   48.618774   28.374298
H   40.135506   66.840111   34.615524
H    1.658077   77.651245   53.372478
H    7.408896   15.252983   61.767738
H   30.994879   25.824583   68.988533
H   67.514297    0.476941   67.751869
H   44.309483   15.887024   79.687187
H   85.448135   59.018143   95.696815
H   31.977039    6.293731   54.950623
H   50.497356   28.375139   39.115898
H   81.445595   58.128601   83.027840
H   10.975464   18.551430    5.537213
H   22.435600   60.666725   27.839748
H   95.857864    0.696574   32.738762
H   69.564140   52.830486    8.895505
H    7.438209   79.434067   77.632805
H   22.802765   96.433357   63.497746
H    0.880624    6.989367   13.276571
H   41.444347   92.388565    6.797613
H    1.792903   73.393448   22.825178
H   24.610558   65.172211   63.287735
H   40.664845   83.984680   48.214428
H   61.224274   70.023041   14.732665
H   60.341976   97.114685   48.427425
H   34.016537   28.071766   97.038795
H   68.422165   10.611135   58.254311
H   56.421848   30.554186   79.940666
H   64.879990   49.535751    8.207583
H   97.522057   82.733711   44.744320
H   43.284000   39.851074   89.434586
H   71.143997   46.760239   49.808735
H   79.735634   41.815857    4.472862
H   97.589073   51.473427   82.555573
H   68.806229   57.954079   29.401621
H   97.840408    8.941275   76.338104
H   12.812139   90.979271   80.877419
H   71.693840   54.288696   25.567726
H   59.688354   83.102737   49.235523
H   33.597954   90.352722   66.451424
H   75.184456   19.712959   48.056934
H   77.674095   96.146439   40.791862
H    5.972093   74.181328   99.225090
H   77.610710   60.376694   34.396473
H   67.911217   88.013741   13.686250
H   91.495003   72.453377   48.164383
H   13.496319   66.460083   31.987589
H   44.399361   12.901698   29.507154
H   27.154900    4.334343   45.987682
H   99.595032   19.957121   94.540009
H   13.558485   62.975197   21.171257
H   92.302536   38.154846    6.724829
H   84.261612   49.335873   74.163078
H   55.014797   33.207848    0.187585
H   26.871080   33.508297   60.354038
H    6.411852   26.505835   66.074799
H   77.106117   30.470154   51.463108
H   92.470215   27.356279    3.091635
H   25.322721   43.484859   55.796356
H   31.998360   22.910622   26.629654
H   77.725449   64.621750   84.155380
H   97.630051   66.536636    1.133228
H   33.929180   64.276367   55.256992
H   85.165268    4.473218   51.417374
H   85.998093   35.211910   16.609398
H   72.674377   34.529259   79.000549
H   95.301628   54.981895   86.431305
H   10.943422   31.800995   60.217384
H   26.575771    3.975226    0.252413
H   64.319275   68.733719   46.330490
H   63.819397   57.884495    5.601480
H   31.042490   52.407570   98.615898
H    4.426810   30.013960   83.168968
H   77.397530   20.437893   57.140907
H   97.528481   43.745586   94.583733
H   76.069168   60.837044   91.007927
H   91.456635   63.717831   40.732536
H   19.405737   45.322876    1.377459
H   45.982994   51.575329   58.912003
H   51.390873   90.974007   68.666397
