100
TIME:    4.021, STEP:  4021
H   45.398102   53.275116   95.464676
H   89.425758   22.755320   31.642286
H   48.872055   63.190804   76.143120
H   82.151520   66.984978   19.757936
H   59.155319   95.058388   56.678528
H   65.671761   96.851845   76.959587
H   42.229435   32.854877    4.900407
H    3.843628   36.469349   38.999302
H   54.784081   99.690521   46.979832
H   64.957222   74.118965   65.150177
H   26.231400   28.035984   52.425900
H    2.368391   25.242380    6.710239
H   87.478867   18.432392   25.475418
H   55.984444   92.682014   63.241199
H   29.412296   10.855606   57.487988
H   39.849350   60.037712   99.262634
H    0.762138   47.927853   39.435844
H   87.064049   99.159248   60.141911
H    7.896785   47.040359   75.203323
H   84.185448   20.425795   90.101036
H   25.664871   55.914845   48.105377
H   47.877533   49.421921   76.852997
H   32.057884   61.919685   17.304375
H   45.447044   84.907257    8.438019
H   85.770538   67.275055   66.235817
H   28.218485    7.798159   12.282499
H   15.343142   75.330093   79.752907
H   93.261841   44.126389   99.682762
H   98.603119   13.908731   67.097420
H   55.175964   91.319664    3.046966
H   74.308189   82.626183   91.250221
H   19.645430   41.414848   27.019920
H   53.591991   74.286934   60.040390
H   47.998672    5.222127    2.353589
H   80.819641   54.963371   69.578033
H   22.173887    0.355699    6.807193
H   65.464310   57.278305   25.304251
H   97.797935   85.364708    6.193107
H   75.345978   93.807915   54.647346
H   84.459969   35.750595   54.398968
H   60.444794   94.155243   37.078716
H   70.236557   92.322250   91.711731
H   45.876064   87.612686   91.915001
H   22.590727   80.159302   73.886230
H    7.864069   73.241852    0.198067
H   26.211246   39.611225   99.494392
H   73.148727   43.513939   64.065529
H   56.454159   36.784958   17.374580
H   82.567673   99.431305   84.075134
H   10.209933   91.937584    2.431365
H   43.237843   81.441704   95.813599
H    0.546498   90.620468   10.089916
H   92.281334   45.323853   69.337196
H   83.575554   41.600266    9.252479
H   20.635910   10.978739   34.547054
H   98.597397    8.304296   55.742477
H   51.164783   73.522377   38.418083
H   26.643791   97.153481    9.982979
H    7.405203    8.665508    2.788345
H   93.674850   36.855778   49.243782
H   13.348166   91.577415    0.887874
H   56.201469   90.515182   13.415759
H   47.046490   32.897758   57.738426
H   19.153913   63.667747   17.968899
H   91.922523   39.693394   70.027260
H   54.328712   42.376930   83.936707
H   64.956161   87.378815   61.196270
H    2.607685   47.502884   58.429653
H   57.309814   60.862915    8.041567
H   11.852232   50.388069   93.266052
H   94.346779   21.811066   13.912937
H   42.417145   18.076187   51.021191
H   44.815125   19.411747   58.652451
H   41.693645   94.922340   64.239861
H   56.038624   34.371449    6.216708
H   20.715456   65.282555   25.367592
H   32.035355   78.033493   62.162495
H   20.894222   87.797325   36.504921
H   54.332924   41.707783   62.549248
H    2.327681   89.961525   74.508507
H   89.560318   70.880753   20.314615
H   43.025658   70.487747   50.544189
H   72.206886   74.375702   12.880352
H   26.788919   56.244820   96.161240
H   56.540161   97.367882   57.961548
H   58.751431   56.754257   21.013824
H   35.708229   10.993477   15.280441
H   20.680418   83.363365   53.926071
H   39.131699   70.289406   95.304207
H   10.827786   43.841675   67.956284
H   88.578461   90.554146   18.377970
H   75.809708   97.901909   10.144793
H   43.207329   48.167839   29.954630
H   35.872852   57.137260   97.934425
H   87.069115   89.552635    8.485765
H   26.039734   36.945747   59.759071
H   43.434021   98.437752    5.937363
H   21.625929   50.474091   91.694023
H   17.162041   54.183247    8.235313
H   88.971031   75.446510   10.384007
