100
TIME:    4.808, STEP:  4808
H   92.177406   81.103279   94.744156
H   67.690071   65.403900   81.265991
H   62.399818   19.810642   66.908455
H   82.283615   34.561577   76.620979
H   52.106232   58.139908   35.339127
H   53.465771   95.999229   54.899136
H    0.983830   85.996750   66.444870
H   41.986977    4.555735   66.740242
H   35.438118   24.023911   97.439842
H   43.449699   85.419121   95.964417
H   53.026581   59.702839   76.618088
H   72.334251   64.690849   50.690102
H   37.258621   70.840889   47.274902
H   17.017475   90.256264   23.130785
H   38.984016   40.557190   19.655663
H    8.204254   91.203690   33.935486
H   37.476448   99.983566   11.079557
H    3.883855   60.875271   32.855419
H   20.154625   80.055267   16.666948
H   62.978432    3.712732   43.683601
H   78.963188   77.566071   26.747223
H   23.327988   50.466675    9.832626
H   21.550301   55.519066   94.786880
H   72.326187   94.345917   49.989662
H   57.622223    4.860321   72.048012
H   24.628744   84.520142   38.295673
H   47.480003   42.614559   95.364174
H   26.857040   80.860901   25.698542
H   15.716763   85.311546   29.894741
H   85.353745   71.841606   65.610786
H    5.279270   53.197620   28.985283
H   69.337288   19.673157   54.163399
H    9.025854   16.706175   30.939566
H   81.250671   33.098145   69.197838
H   61.257523   95.472031   17.502441
H   90.589157   62.011890    4.311309
H   40.948730   28.457134   87.317001
H   65.266457   70.966316   61.727428
H   42.126049   76.659538   78.381500
H   10.333937   62.075333   16.317385
H    6.659370   21.158216   55.620098
H   99.504814   27.643026   28.683672
H   52.654957   92.332092   48.760254
H   72.335709   93.344971   50.836525
H   39.597294   42.191658   67.544090
H   16.057919   54.622059    2.692889
H   79.297165   86.312828   71.618980
H   56.496189   44.890808   66.069725
H    5.574994   34.251003   52.682312
H   26.715847    3.912184   47.385704
H   43.177799    5.461819    4.110848
H   38.791634   17.592539   58.426903
H    8.603757   49.887146   23.627455
H   65.346397   28.756996   43.979576
H   57.974976   79.951912   41.241886
H   99.582108    7.476173   28.951141
H    1.059156   50.813988   13.268354
H   68.041885   22.831469   89.711533
H   69.472527   41.919281   42.370445
H   41.739941   97.346130   26.859627
H   62.993042   54.976482   39.526054
H   28.269712   83.189896   77.808228
H    0.474978   79.193649    3.771475
H   73.197182   67.954376   96.600433
H   23.159472   76.837677   43.317463
H    5.982803    3.253168   30.469809
H    1.813215   14.588254   99.191696
H   48.244377   92.511368   96.052803
H   96.531143    4.314102   58.684532
H   27.796740   89.970703   91.608856
H   69.356743   68.263641    4.471404
H   77.525055   91.956635    8.640605
H   93.500305   80.482643   38.471886
H   24.365841   45.120121   17.478455
H   93.984749   35.494259   65.877045
H   39.322884   15.720011   72.411179
H    3.489776    9.820469   76.080544
H   57.868908   36.336956   79.968086
H   92.074623   39.396114   71.328575
H   63.731781   47.100224    6.707765
H    4.957098   79.022629   67.351814
H    2.074575   75.627457   84.735252
H   21.991022   87.526062   87.833344
H   80.932159   23.590124   24.280678
H   18.219423   48.142418   81.670784
H   40.636356   85.660622   75.665268
H   88.270164   53.772156   52.807556
H   33.346878   20.354445   45.742165
H   55.463486   26.470160   88.867561
H   41.246922   11.460304   96.092590
H   20.785881   33.050304   34.997967
H   34.042210   57.086716   25.140585
H   93.655739   71.784859   90.814560
H   11.938741    4.872926   50.996655
H   73.463295   19.057930   26.568439
H   91.042648    5.869404   19.109734
H   80.966087   43.601818   60.676498
H   24.514013   57.174927   79.096931
H   79.671143   57.575695   42.317017
H   37.854038   55.250538   34.570347
