100
TIME:    0.335, STEP:   335
H   94.668129   91.300179   98.839310
H   91.951561   22.907894   99.132263
H   85.520203   98.005470   19.406418
H   81.532837   18.848200   21.800425
H   92.170486   99.609253   56.621864
H   22.821575    0.849044   11.921391
H   35.413349   83.958504   16.650209
H   93.555954   17.584187   77.435875
H   45.393059   54.084534   79.000572
H   65.685570   21.196331   20.807619
H   69.094147   79.722046    7.480930
H   43.055241   40.482384   69.083412
H   21.953377   41.439514   91.832787
H   38.494663    4.044385   82.733788
H   84.577171   40.099289   34.668995
H   88.054062   82.435982    5.231863
H   97.133064    4.151133    3.856052
H    8.303399   78.409531   87.932419
H   50.480782   92.406052   81.011459
H   83.581245   98.508026   39.042397
H   44.397171   22.866898   48.149742
H   94.469704   44.542099   90.730782
H   81.271294   91.897682   22.765614
H   87.916382   40.699558   82.195068
H   17.601950   59.606503   39.032242
H   45.122921   17.627586   57.773254
H   33.191036   28.551079    6.613849
H    4.275135   72.075851   77.848434
H   18.455566   79.485924   41.336121
H   13.839189   82.548477   10.020367
H   29.279696   52.083611   82.902855
H   86.909546   43.255188   68.251457
H   93.954407   43.971703   27.976400
H   92.256432   43.021881   57.638100
H   72.444878   33.596848   45.127014
H    1.681666   10.801596   19.491644
H   11.930215   92.266945   34.861889
H   50.143028   52.822773   46.080784
H   35.659786   73.356728   10.018056
H   31.640507   80.821922   64.392387
H   12.348721   67.673607   50.232525
H    1.513277   26.892275   18.538855
H   14.126801   65.508835   25.670837
H   57.967285   18.385836   13.486446
H   27.597034   18.674385   84.774109
H   73.672951   69.501762   84.631996
H   39.617359   43.812756   30.485785
H   56.257305   98.832031   89.305862
H   74.820854    4.705273   31.110277
H   32.915806   35.848309   60.233337
H   43.519062   37.301826   56.949070
H   21.413069   32.653137   52.070740
H   15.828180   23.951172   83.414131
H   68.929459    1.736088   46.598652
H   14.089691   87.872726    3.248776
H   93.985397   12.179874   81.222610
H   17.489899   79.880577   87.848656
H    1.114236   45.250160    4.925865
H   16.698112   52.923386   85.765564
H   36.911827   53.537888   54.081383
H   80.832565   62.990021   88.276611
H   87.021332   24.827225   80.197617
H   96.955254   84.308800   10.575746
H   66.044380   43.616798   18.044798
H   45.619247   34.088039   26.758753
H   80.765846   25.619282   65.993675
H   60.691032   59.942303   83.235764
H   57.225060   36.696701   82.217537
H   73.599663   25.715355   39.222187
H   37.172760   64.994774    1.026310
H   11.394358   72.611122   58.129612
H   46.344433   40.407585   81.149147
H   85.148865    1.737438   53.159542
H   22.817345   28.179907   83.298561
H   78.322800   29.120363   26.793488
H   33.578205   29.042551   73.387558
H   97.370453   97.508659   96.960999
H   47.719238   28.815575   32.940990
H   77.610725   52.520451   21.423824
H   83.096451   90.709496   92.060699
H   17.437489   32.747387    0.011215
H   66.459435   46.415359   58.767891
H   38.992374   12.848897   61.806946
H   73.215485   40.827976   32.831612
H   36.018433   27.929268   15.277843
H   43.583088   21.358944   65.046669
H   89.528603   78.995689   39.517254
H   61.348007   78.473167   92.256737
H   62.635201   75.520027   25.459957
H   36.717415   95.502502   36.187771
H   37.732151   91.520798   40.536327
H    3.073288   20.701235   39.907150
H    6.778514   37.668739   44.831505
H   79.607063   33.552544   49.405376
H   50.800098   19.722034   23.784531
H   21.591248   82.502617   50.145805
H   36.011284   86.905464   17.922874
H    8.095166   19.089996   50.675453
H   92.753563   38.294346   16.990826
H   60.046124   70.099342   65.420761
