100
TIME:    6.852, STEP:  6852
H   53.949295   93.659767   92.872818
H   11.240913   76.164497   10.145392
H   97.549072   66.864296   42.910435
H   82.626694   50.348419   64.583008
H   33.798309   21.975355   79.919769
H   21.762188   93.784813   57.323414
H   93.857254   24.017178   26.288477
H   81.332603   81.386780   79.066261
H   85.192635   27.501633   68.779060
H   87.607033   14.769400   76.001259
H   62.898682   41.947529   79.729790
H   94.317886   67.145996    5.196614
H    6.826401   47.234875   44.172295
H   15.811245   83.956093   78.680641
H   63.830391   57.978416   21.390347
H   26.020123   12.428122   64.265137
H   73.109993   35.177181   97.152931
H   47.594288   61.420715   61.998039
H   51.985867   65.805191   24.352177
H    7.914314   60.299709   82.848656
H   57.669327   74.079559   71.265831
H   19.288254   53.180115   35.767166
H   94.258125   38.895348   36.307571
H   82.408653   18.798067   98.183914
H   84.517891   42.762589   87.143471
H   15.299496   24.103355   46.079506
H   71.224098   57.649178   35.922482
H   54.389221   76.267906   93.262680
H   60.161064   70.759071   33.273590
H   63.729176   21.253105   28.102566
H   85.724922   36.487816   67.270576
H   98.396851   63.194775   64.940102
H   53.003452   67.157433   15.079228
H   67.615089   45.777756   83.087860
H   10.428589   40.877480   41.933098
H   68.270317   22.106880   97.883919
H   36.995087   53.600708   48.376072
H   80.786140   33.558056    5.968988
H   55.848866   32.121696   80.302780
H   17.811974   70.722717   77.136215
H   66.965958   91.292671    3.775611
H   22.764862   68.473267   29.767239
H   70.255585    4.591057   96.401817
H   41.819805   27.653219   50.687431
H   62.294487   61.544895   42.454655
H   89.678246   93.608261   10.998236
H   95.265915   97.472427   91.236839
H   56.605831   65.943359   92.540878
H   65.317879   64.966225   71.146622
H   69.598389   35.025257    4.439585
H   43.031101    8.126894   25.656776
H   38.134106   27.924507   24.245277
H   51.004475   61.738953    4.914694
H   18.016701   95.404404   34.175308
H   95.228073   59.082298   58.629734
H    2.129917    5.326084   59.368546
H   30.638964   91.834663    7.669671
H   15.841798   29.800974   37.064560
H   30.679695   28.286083   85.455940
H    6.858377   54.456539   68.723412
H   91.929680   59.920242   80.159805
H   55.727058   64.164627   85.322693
H   39.242771   39.715248   63.608246
H   13.553825   79.088837   41.108829
H    4.289484   13.586014   33.666340
H   80.418335    1.640190   51.327560
H   37.820114   85.253387   97.875992
H    7.051243    9.410171   93.767822
H   98.403603   57.445312   30.487133
H   69.202843   92.777275   87.304779
H    4.449783   29.191605   79.955696
H    9.000367   24.114086   58.299538
H   60.228073   79.379791   86.063049
H   79.368523   15.756752   96.031555
H   92.533806   38.410427   20.826283
H   87.642555   46.722210   34.876961
H   89.090424   32.742748   12.262712
H   53.899746    2.684268   92.849342
H   90.091881   33.392239   94.127708
H   63.496445   35.759254   30.615166
H   44.956017    0.168785   89.517426
H   55.464592   88.906998   13.766453
H   51.280411   21.707678   82.493301
H   21.556683   98.499290   37.592594
H   18.693800   20.288101   83.527885
H   93.590256   60.741753   17.607071
H   24.784380    5.156331   50.273201
H   66.228020   56.770794   24.533279
H   97.880478   12.664137   72.150276
H   60.530781   27.365932   69.157440
H    4.434751   43.419693   78.163498
H   85.277512   10.815444   64.080040
H   24.679752   33.113476   48.880257
H    9.486461   28.875696   88.818878
H   38.126198   35.969398   73.538116
H   59.868698   25.153402   13.534409
H   18.722891   60.901917   43.124756
H   25.051378   25.496674   41.327492
H   82.299675   66.390800   71.111137
H   64.813713    2.802146   37.665722
