100
TIME:    5.982, STEP:  5982
H   12.784357   73.442314   93.669327
H   35.266060   29.019529   55.290730
H   82.587982    4.273448   53.125660
H   82.480667   86.191315   12.268584
H   41.590820   52.241104    3.509410
H   35.256374   94.727348   71.164513
H   39.453533   65.272285   58.253269
H   49.712891    6.121609   58.947384
H    6.578957   11.148540   23.540949
H   11.371119    2.276207   41.937229
H   43.823959    6.941374   63.532013
H   27.524498   23.537144   67.123772
H   62.343063   99.846397   30.620049
H   58.887856   86.637672   12.472317
H   53.261330   35.690811   63.224941
H   61.000702   88.521339   36.483124
H   43.070320   77.633034   17.953405
H   28.989172    3.754845   92.158730
H   38.438580   29.305506   78.516510
H   31.351585   78.777382   23.614954
H    9.296349   60.691212   94.882317
H   35.880508   52.025177    9.855682
H    5.874415   45.971001   61.198471
H   63.244923    8.390352   62.799175
H   15.633960   11.756706   80.718300
H   19.276991   49.817413   27.897446
H   46.244644   93.811844   18.658155
H   27.798290   35.659233   64.508713
H   41.243980   91.826080   74.399994
H   30.368896   42.785393   58.940323
H   51.485893   58.472263   36.102135
H   43.464298   87.235840   45.480339
H   91.720940   30.810251   36.702759
H   30.856106   25.508018   19.738897
H   32.075912    6.725933   88.990662
H   92.642944   53.964790    0.618905
H   53.550095   85.461060   79.823586
H   16.746262   49.481594   44.574100
H   92.569397   51.078606   64.612038
H   99.756287   52.169010    8.685324
H   26.423973   61.437439   83.279030
H   96.083496   65.061554   85.350945
H   62.767307   99.372223   33.560486
H   97.373642   13.050558   65.623253
H   37.761623   95.873947   68.006210
H    0.908700   77.014328    7.463728
H   88.469040   50.159805   82.886772
H   56.558887   56.982635   38.710163
H   39.888992   37.020370    5.848651
H   51.338390   21.781218   65.273849
H   43.090839   92.119690   16.486969
H   95.847145    8.654217   81.354958
H   32.956913   56.694397   55.444759
H   38.161736    9.598916   95.786339
H   64.499229   82.839035   51.228840
H    1.046333    6.241240   88.985397
H   75.483940   16.938957   24.925545
H   80.623688   11.961355   59.473007
H   62.063240   91.522820   52.243523
H   64.267044   87.584305   93.468285
H   37.050220    0.382166   47.991489
H   86.605049   72.262466   24.687126
H   80.178947   99.081703   23.266754
H   53.813675   74.349609   64.731750
H   69.760315   83.072067   52.646809
H   33.862114   44.890068   99.885857
H    7.621129   55.173855   55.873428
H   67.148079   59.654392   52.176792
H   55.045605   19.957954   85.052063
H   51.578125   49.020119   89.136749
H   32.078087   88.385483   90.389961
H   80.723526   52.994080   94.595657
H   16.953678   22.412460    8.367714
H   98.524559   70.817223   47.723045
H   50.586468   37.169201   54.874405
H   67.079353   90.962822   93.417053
H   10.081416    8.065657   96.842659
H   13.025569   59.573265   44.803932
H   48.370579   35.947704   84.423576
H    6.162433   83.151527    5.566561
H   27.930643   91.168198   37.518681
H   90.178024   83.264923   86.546440
H   96.248863    7.159078   99.638290
H   61.700500   24.051914   17.054249
H   61.055504   74.708260   67.864594
H   13.613361   28.782173   57.191467
H   66.678978   68.412651    8.788366
H   52.236015   26.387609   33.553741
H   79.826279   61.103935   79.265755
H   37.449459   63.162365   38.059311
H   68.830742   96.442932   59.790691
H   20.906321   45.382614   47.505989
H   68.911224    7.007902   81.601822
H   25.404957   76.094185   30.156008
H   53.166939   13.898006   53.545750
H   88.010239   59.508820   58.470871
H   87.779564   10.975322   93.158783
H   26.730684   82.447464   58.790947
H   23.744202   62.636349   43.982407
H   10.776964   25.127430   21.475254
