100
TIME:    6.014, STEP:  6014
H   10.620356   70.507744   93.640030
H   34.382271   30.753660   57.308552
H   83.138275    6.575572   52.749928
H   82.486038   84.872955   10.514495
H   41.304199   54.806046    2.641811
H   34.760036   94.692680   74.333458
H   37.776531   67.432930   60.755711
H   47.197754    8.889960   56.009151
H    5.792336    8.071818   21.526667
H   10.496973    2.735710   43.190159
H   40.847397    8.228935   60.449738
H   26.303062   25.141148   64.845940
H   60.301071   97.911339   27.440361
H   57.303383   86.539040   14.907619
H   53.650490   32.832413   61.686611
H   59.714081   85.722511   33.826874
H   40.497078   79.749733   20.866491
H   29.673498    2.197838   91.049355
H   38.936871   30.648035   80.202545
H   30.489525   78.097694   25.793665
H    7.397423   57.505421   94.013664
H   38.948380   52.067657    7.130595
H    5.447138   45.710747   60.282944
H   60.271534    8.773165   60.422466
H   14.489490    9.218864   80.954628
H   19.131117   48.871368   24.888290
H   43.485123   92.481766   19.293165
H   25.098217   37.152885   65.566330
H   41.939781   94.729401   72.887299
H   31.595825   41.993401   61.484268
H   52.745415   61.341648   33.570396
H   45.484806   86.351562   42.517937
H   93.974846   28.469065   39.585571
H   32.208260   22.575401   18.390875
H   31.280392    4.306927   90.939392
H   95.424683   56.471138    0.518269
H   56.619186   84.289185   82.345070
H   15.423656   48.895901   46.832157
H   91.218811   50.381340   61.510963
H   96.742126   49.173161   11.203024
H   24.237083   62.535339   84.032936
H   93.386719   65.187042   86.984734
H   63.042942   99.564117   35.871765
H   95.330185   13.587667   68.752159
H   34.985989   94.611252   70.744492
H    0.495759   77.624680    7.593733
H   88.719040   51.900040   83.193901
H   56.560596   57.312225   40.690144
H   40.824295   34.370224    4.572101
H   52.009533   22.268278   63.035675
H   43.088642   89.030334   16.824249
H   97.402321    5.684833   79.254372
H   33.620731   56.879944   53.586117
H   37.420769    9.076760   97.198448
H   61.951378   85.643234   51.501057
H    1.086189    6.207579   87.896042
H   77.512749   16.015617   27.969002
H   78.240875    8.939260   58.648788
H   64.586975   92.874870   49.786980
H   62.155441   90.043777   92.558128
H   39.068775   98.893936   45.496616
H   85.469307   71.964615   23.239128
H   82.351311   96.898109   21.072418
H   56.011185   74.523926   63.863056
H   71.030334   80.516403   55.626789
H   31.896301   43.299248    1.777998
H    5.053655   56.280056   57.418350
H   64.937630   61.484470   53.706577
H   56.640575   17.658638   83.045227
H   52.226318   50.629738   89.069366
H   31.061859   86.208237   90.006172
H   78.084854   51.932068   96.938431
H   14.867130   20.829697    7.547157
H   97.819969   68.791832   45.821678
H   52.129192   37.214855   57.300186
H   67.835701   93.013603   91.263733
H   12.986812    5.292097   97.408577
H   14.528987   57.480736   46.571266
H   49.905003   35.853710   84.780510
H    4.593189   81.408363    2.809762
H   28.556864   91.499252   39.431278
H   92.579880   83.472443   83.869682
H   98.272789    7.694203    2.685822
H   63.901917   26.790318   14.131602
H   59.497398   72.706795   64.762543
H   12.876789   29.957588   59.413635
H   68.816185   66.085991   10.314245
H   52.750664   23.826941   33.221954
H   80.490341   59.322197   79.004036
H   34.620113   61.845715   39.203110
H   70.140312   98.170959   60.466473
H   23.273996   47.789352   48.115608
H   70.962494    7.968107   84.076431
H   28.497608   78.035591   32.313721
H   52.613716   11.031551   54.281101
H   90.653305   58.245148   56.818039
H   85.239525   12.811687   91.318451
H   26.668917   84.030960   58.148613
H   22.219788   62.774288   41.301987
H   12.764574   24.306263   18.392490
