100
TIME:    5.279, STEP:  5279
H   60.325111   37.910072   94.312943
H   54.681801   90.924545   10.962970
H   70.498734   53.696182   61.380032
H   82.362671   15.155415   50.803833
H   47.887527   95.892639   22.569351
H   46.160297   95.488960    1.542831
H   76.296959   17.800404    3.277704
H    4.967308   45.302021   23.493359
H   23.860039   78.739014   67.793922
H   30.578180   92.181984   14.408621
H    9.215302   78.654663   31.249821
H   54.357910   88.299782   17.164057
H    7.203049   42.359245    0.473808
H   93.696739   88.804512   58.975395
H   44.711967   98.486252   97.014893
H   89.266159   50.008438   94.837616
H   99.601234   31.135586   53.956543
H   13.955564   37.959873   16.528509
H   27.490643   99.812027   41.479687
H   50.289978   93.709267   75.751503
H   51.013374   30.676247   13.963543
H   68.483215   51.091934   69.722672
H   15.261666   51.688454   81.311462
H   28.562447   99.980438   15.008325
H   40.776154   67.509583   75.526466
H   22.481661   70.599136   94.004745
H    6.864408   23.034702    4.708712
H   87.115120    2.845570   41.268936
H   25.958107   28.043932    7.631546
H    3.414188   60.184471    3.054359
H   23.816574   95.434052   91.721260
H   99.076637    6.660694   10.560539
H   42.203075   82.245811   73.370964
H    1.151224   89.933952   49.354836
H   49.550079   59.868179   46.181725
H   31.531656   98.902199    2.829779
H   86.123688   11.206802   24.429729
H   45.800533   62.348545   94.966545
H   22.243519   66.396660   32.737564
H   65.969704   17.980743   53.375820
H   74.469574   37.317940   66.716652
H   57.174034   48.782890   50.808514
H   56.711956   95.156540   82.781380
H   42.261173    1.250585   96.889084
H   98.741905   23.609955    7.848514
H    9.980513   63.605671    4.607593
H   82.976852   11.927625   76.139534
H   56.521343   49.741959   95.212563
H   19.341560   95.243652   33.892189
H   36.594227   11.081106   14.444595
H   43.141865   59.990173    9.076091
H   61.681877   73.888260   27.505310
H   18.373653   52.618164   96.272575
H   54.439850   21.070618   64.764061
H   20.473232   21.231024   45.248577
H    0.170684    6.980727   12.917191
H   30.917534   37.223579   58.064293
H   32.969864   78.351128   77.580063
H    6.620932   61.819778    6.210892
H   10.660082   33.549740   13.463264
H   92.703644   33.074436    2.804318
H   11.554804   78.805893   56.497833
H   32.451298   47.053879   71.473572
H    5.538566   70.520096   83.814957
H   41.855316   39.219128   87.179054
H   77.048729   79.838402   58.319008
H   64.024475   30.871872   21.932629
H   15.709319   19.449026   18.569326
H   20.006094   70.471062   29.142822
H   37.338127   13.660101   90.617065
H   54.400826   36.217300   98.821327
H   38.689445   76.325150   43.125679
H   62.790726   57.183800   26.394318
H   13.998753   15.311489   89.493706
H   16.693525   36.166233    1.581573
H   50.458969   45.907570   40.719639
H   46.254208   68.998482   84.410149
H   79.997345    5.539049    5.978127
H   14.661153   38.012638   76.582191
H   40.633957   21.446106   66.130676
H   14.173534   83.895340   95.502861
H   37.415764   78.703445   45.351097
H   51.784271   95.402893   32.689022
H   13.337107   63.894577   81.261719
H   95.285133   18.679764   36.012474
H   29.794933    2.959773    8.373006
H   19.727209   19.526627   75.266586
H   40.929047   82.645462   40.844299
H   65.237656    0.246487   85.015388
H   99.603577   92.082321   12.929609
H   40.061119   58.481113   44.944622
H   68.891441   92.510895   34.113419
H   23.847399   85.917030   27.237751
H   57.462349   33.443920   82.754051
H   65.320549   76.869347   37.390995
H   29.945374   87.270111   94.781525
H   43.579887   70.631706   33.589111
H   26.242460   61.185211   71.557884
H   57.233673   59.605991    2.864593
H   67.108658   43.165783   89.197723
