100
TIME:    2.252, STEP:  2252
H   65.028717   15.501338   97.084244
H   38.626808   26.844213   20.055380
H   18.464666   35.921432   96.900581
H   81.854599   39.868492   16.722992
H   75.000092   53.265247    4.644400
H   93.096443   98.768333    1.768427
H   34.943325   13.402737   66.562187
H   42.883537   83.428467    1.422125
H   98.269478   69.772751   58.332798
H   13.299463   48.718742   95.874352
H   90.779480   56.856586   22.825773
H   69.889679   36.571640   32.628670
H    0.013356   25.458427    1.298933
H   43.575462   98.134560   28.618259
H    7.892296   68.869537   42.521049
H   10.976261   14.761088   46.106216
H   43.010010   30.925362   78.392365
H   49.268875   85.185768   21.472763
H   80.339531   72.828781   82.006348
H   31.845703   57.988354   69.659279
H   30.639755   32.023731   96.121094
H   78.281784   47.073547   27.499649
H   55.676582   76.306847   67.917831
H    9.806358   63.690922   39.821243
H   49.039055    7.570442   53.177505
H   36.332966   60.504177   78.091591
H   67.887276   48.865093   44.654835
H   42.524544   61.555462   41.211102
H   60.138382   53.410896   50.718651
H   87.345497   35.103195   62.416073
H    4.689591   23.994589   31.211254
H    7.949865   90.292564   90.785164
H   28.985107    3.715676    0.674897
H   73.253441   67.340408   76.878128
H   24.793732   88.686096   61.858047
H   68.357132   61.391766   12.898316
H   95.795380   22.063272   85.914185
H   70.910332   17.736080   81.358589
H   50.016510   32.348022   26.076445
H   51.079731    1.358035   15.216455
H   81.341576   33.455235   95.400681
H   29.224274   12.927880    8.602509
H   30.638632   77.004517   64.136436
H   35.553230   50.515068    0.922985
H   61.310261   43.037640   48.821022
H   49.033657    5.870228   92.314308
H   59.323856   47.309479   47.073616
H   56.359684   18.569796    7.918878
H   30.858122   45.938213   54.642418
H   73.118126   65.025764   26.156925
H   43.372807   52.227623   77.161575
H   14.575850   54.770969   26.222157
H   55.595032   35.066589   72.078117
H   24.542538   70.466042   31.190165
H   61.479645   55.928097   19.515211
H   96.383987   10.165205   15.963409
H   39.018398   24.566750   70.171364
H   58.368256   64.214005   55.549637
H   67.886299   33.921886   38.595985
H   10.410761    0.883139   99.558357
H    1.758130   73.842354   38.811848
H   18.984676    6.982206   93.457825
H   26.984165   53.583961   79.062180
H   97.679749   54.044815   66.002022
H   21.707115   80.980896    5.285188
H   63.001320   30.319344   79.341164
H    6.886057   26.220831   75.788651
H   24.804893   46.331848   73.861221
H   69.143059   87.971977   18.990379
H   76.008118   61.413742   96.991058
H   50.521675   42.173897   35.137020
H   88.279480   76.785522   21.502195
H   60.157135    6.914455    4.003071
H   80.630669    6.867904   69.365501
H   70.748192   31.848028   72.114731
H   78.897972   51.905533   44.398243
H   71.422699   31.358221   30.877600
H   37.783382    3.467385   38.809917
H   69.502686   46.903896   42.804016
H   89.082954   86.305573   26.909279
H   54.952023   52.579632   14.585709
H   10.292763   58.934830   98.466164
H   60.287045   44.845581   44.391697
H    5.086676    4.868136   57.734528
H   42.676178    8.019478   29.446198
H   99.458313   91.774086   98.168831
H   17.560720   39.614182   30.927458
H   92.207916   24.993805   72.327766
H    2.417031   68.784447    9.775507
H   67.232315   16.621078    4.722412
H   16.183777   95.033524   81.019852
H   44.914310   64.875298   76.432121
H   29.776138   95.111191   93.135757
H   64.893105   49.833843   78.658791
H   17.655437   48.009743   67.835320
H   79.927536    6.802765   51.130280
H   83.849380   96.918343    7.674778
H   15.133712   35.412109   20.002815
H    1.433498   46.557781   56.410194
H   79.098129   20.858585   80.785797
