100
TIME:    9.623, STEP:  9623
H   66.557770   39.546486   90.335892
H   34.711655   26.320110   84.866142
H   45.181393   66.221077   10.380468
H   83.091797   36.183769   12.692643
H    8.968908   44.082870    4.787510
H   78.794800   90.782784   31.743458
H   48.627888   11.128428   42.984310
H   63.537476   21.114040   24.641586
H   17.076164   61.079742   94.353554
H   11.919260   54.557026   84.500099
H    5.146974   53.443314   12.811193
H   88.557549    6.041849    7.953734
H   30.122986   79.520851   68.799683
H   78.608307   75.415108   89.554283
H   97.486946   10.459023   88.130394
H   14.602795   70.066147   34.248108
H   50.282631   18.458000   49.408005
H    6.849234   26.583565   65.943924
H   95.150009   82.050156   70.339111
H   33.255062    1.458680   71.511192
H   93.233765   98.217415   96.058365
H   84.946732   56.858658   99.790970
H   57.261284   16.366323   57.025421
H   24.942074   51.947235   92.386414
H   85.411240   23.008263    7.604274
H    2.231711   42.417465   85.314903
H   32.276588   42.460537   90.900009
H   20.581141    5.608816   84.857719
H   20.414196   22.165792    2.288348
H   69.981667   52.670303   48.389229
H   94.780510   84.968689   48.037964
H   73.359451   86.638504    8.414726
H   48.189247   64.417892   64.712791
H   84.696411   91.832237   66.349724
H   41.465965   31.073830   10.523311
H    9.148527   39.148380   89.173805
H    2.770313   52.120369   66.720108
H   66.253487   82.849388    1.510532
H   38.882504   71.748436   11.772373
H   56.813694   11.309331   95.152054
H   77.587769   86.371078   69.058189
H   89.239601   79.340500   71.228996
H   94.102692   21.214867   96.552635
H   64.890419   74.170998   21.619495
H   21.929205   52.226627   79.578415
H   53.913551   46.454815   22.255846
H   16.926228   48.172520   17.842516
H   56.774960   94.483780   63.993885
H   46.318550   35.473248   60.610649
H   27.769918   77.208275   10.692307
H   44.864170   40.757561   51.762421
H   72.806763   70.796844   42.346169
H    8.472900   77.806152   43.984032
H   53.841759   50.198380   56.452400
H   74.597176    1.918012   82.185684
H    5.581194    2.411262   65.037155
H    6.309248   11.878931   71.214806
H    9.507762   68.113457   65.688744
H   49.225552   45.377159   72.728310
H   24.000439   67.444992   89.909584
H   66.730682   31.057573   64.117409
H   57.378838   38.372543   59.946831
H   27.368977   50.631775   73.594650
H    3.833575   94.183548   65.878265
H   14.275546   92.269539   91.716393
H   10.193716   63.885765   15.171689
H   15.497124   81.053375   31.661362
H   15.639516   67.887032   26.237656
H   36.511353   58.338928   56.696224
H   25.463104   31.982637   81.433395
H   16.450809   40.648617   46.721962
H   80.836143   32.079491   61.406551
H   79.554611   42.316845   15.014408
H   18.371265   40.380390   31.387011
H   26.019907   42.484600   30.923819
H   53.153641   24.316410   48.422958
H   40.756783   92.904709   61.411415
H   84.078072   21.504463   45.893089
H   22.971739   25.252934   25.050356
H   27.604095   84.808510   91.891273
H   99.201866   28.836710   55.137032
H   63.396812    6.883969   81.943291
H   26.549051   68.048866   46.389416
H   12.196561   35.620560   84.504997
H   83.771606   46.942924   14.912227
H   29.817509   62.525124   10.033593
H    9.853334    3.681410   82.404900
H   10.792461   35.035255   95.805618
H   55.389652   58.378883   49.487068
H   15.536143   13.358910   68.213516
H   17.836142   93.044647   36.682274
H   90.303452   19.221045   16.883936
H    2.306463   16.252028   63.165947
H   75.265663   96.835007   78.770683
H   90.213928   87.759712   37.210976
H   88.741913   15.730686   70.408401
H   98.774223   19.922523   83.760315
H   19.702692   62.604786   85.693871
H   50.295433   78.356636   39.010761
H   36.932724   31.693722   70.726517
