100
TIME:    7.157, STEP:  7157
H   33.323074   65.689644   92.593582
H    2.818304   92.690605   29.376598
H    2.792964   88.807579   39.329235
H   82.677887   37.782806   47.863842
H   31.066053   46.422451   71.649734
H   17.031467   93.454384   87.527939
H   77.871002   44.613148   50.139874
H   57.360207    7.773994   51.062485
H   77.695152   98.176910   49.579845
H   79.276497   19.148912   87.943245
H   34.528320   54.219944   50.350609
H   82.678406   82.434158   83.486259
H   87.371513   28.781109   13.863884
H    0.709847   83.015999    1.889971
H   67.534920   30.734306    6.723458
H   13.755852   85.751526   38.947754
H   48.583778   55.349644   24.918299
H   54.116772   46.579330   51.426636
H   56.735203   78.598846   40.419872
H   99.697708   53.823765    3.614450
H   39.570190   43.715759   62.986774
H   48.528900   53.585007    9.793579
H   90.185936   36.414803   27.580862
H   54.070053   22.446749   75.533234
H   73.609077   18.573784   89.395973
H   13.861431   15.113125   17.376982
H   44.923046   44.969543   41.974918
H   28.655159   90.504280    3.343672
H   66.792915   98.431343   18.856775
H   75.424500   13.704252   52.349358
H   97.727409   63.836639   43.139946
H   17.654446   54.768833   36.704704
H   74.487190   44.841835   42.556038
H   80.501823   17.826248   70.238358
H    2.837644   17.784676   60.490646
H   94.783760   45.995987   96.925209
H   66.247543   42.431274   72.408966
H   68.178642   27.975666   27.491119
H   42.973766   25.477026   50.745667
H   89.084007   42.169071    1.131935
H   46.121002    1.759009   10.960703
H   97.060860   69.669327   45.337132
H   72.880402    6.420633   18.432003
H   22.345432   32.772545   80.508781
H   35.839218   49.512157   68.553902
H   85.741020   99.425674   12.237345
H   97.648727   14.059907   94.164162
H   56.624447   69.084763   11.412247
H   74.234810   39.706928   58.980286
H   76.002197   39.667553   83.114967
H   43.010159   78.681213   28.871479
H   52.958981   99.621796    4.224225
H   57.331493   63.507446   87.201485
H   10.954361   90.429352   47.634476
H   70.943863   85.810249   61.224300
H    2.509794    5.005254   48.985626
H   49.973721   83.034081   36.677788
H   93.131027    0.996702   29.208311
H   54.733536   41.175144   62.042015
H   86.730721   77.899338   60.048485
H   11.169369   45.737389   56.378967
H   44.902016   61.325729   71.523788
H   59.950436   18.902138   42.693481
H   34.497814   80.750290   32.827160
H   16.395611   89.226593   62.069279
H   61.681610   86.477745   69.361542
H   13.348860   95.799194   12.601905
H   85.982704   26.854265    8.348586
H   13.605019   35.529953   11.357293
H   75.383263    8.117408   86.662537
H   94.764595    8.439515   76.297707
H   83.901115   13.964910   80.652367
H   40.341827   64.296402   78.244446
H   72.652901   96.453308   77.909149
H    7.231774   38.853481   43.950184
H   94.851494   66.270775   14.354499
H   16.791069    6.343345   17.671743
H   68.229202   82.741997    9.693023
H    4.718570   32.496357   97.529732
H   48.538712   19.143822    4.339291
H   50.924919    3.324807    7.746730
H   78.351753   90.884918   88.249657
H   70.572487   26.808386   11.539190
H   42.539509   24.599277    9.736361
H    3.843107    1.208883   53.961464
H   86.572128   71.944443   38.787109
H   45.154636   82.980263   64.816734
H   71.133263   32.363255   21.370934
H    4.210403   95.682411   69.655769
H   33.563580   14.816608   80.061600
H   16.916676   59.887627   84.604538
H    7.844423   33.753723   69.892799
H   44.230915   42.265430   72.466377
H   38.962891   47.379723    9.384444
H   32.853294    8.648499   80.546936
H   85.060425   13.110053   97.780357
H   94.513664   78.405350   25.583664
H   24.462656   40.587543   35.205246
H   67.770103   67.707863   45.564030
H   83.759865   94.974747    8.283284
