100
TIME:    6.537, STEP:  6537
H   75.251785   22.546255   93.161209
H   19.939510   59.095860   90.284157
H   92.132126   44.201561   46.609051
H   82.573822   63.326019   81.848022
H   36.619736   96.726807   88.460953
H   26.648014   94.126076   26.126930
H   10.366660    2.746229    1.655005
H    6.090988   54.134693    7.987582
H   92.935936   57.787506   88.605949
H   96.210701   10.245865   63.667728
H   92.199219   29.272741   10.072929
H    6.340225   51.356586   27.617859
H   26.927261   66.285225   75.472343
H   31.407204   84.927010   54.709599
H   60.004402   86.115776   36.538090
H   38.685867   39.979164   90.412598
H   98.440346   14.343278   68.477242
H   40.857952   76.748703   72.918007
H   47.080814   52.589996    7.757666
H   16.400223   66.989052   61.401970
H   76.361877    5.437674   79.816628
H   89.088898   52.761948   62.592346
H   98.463829   41.457222   45.319794
H   11.676048   15.029757   21.578665
H   95.784370   67.744110   84.817116
H   16.746988   33.409447   75.706505
H   98.385735   70.743301   29.671606
H   80.968399   61.564766   82.851761
H   53.311775   42.179516   48.164185
H   51.650394   29.049278    3.061752
H   73.328911    8.241464   92.192375
H   78.507477   71.899155   94.101250
H   30.814224   90.204689   86.701538
H   54.305840   74.645706   96.358658
H   18.268448   64.727425   22.767107
H   40.887585   97.434258   98.874062
H    6.782724   65.136353   23.555212
H   93.806999   39.323475   83.739403
H   69.145172   38.985405   10.828615
H   47.480785    0.210722   52.352673
H   88.494354   80.482811   96.354591
H   49.311264   67.237991   13.685830
H   67.544708    2.701391   73.647758
H   61.932682   22.366049   19.889193
H   89.619392   73.974075   15.498965
H   93.744560   87.600113    9.718500
H   92.804977   80.341995   88.213539
H   56.588528   62.698959   73.050446
H   56.110649   91.056007   83.710861
H   62.984989   30.230310   26.464521
H   43.052731   38.538681   22.336674
H   22.822220   57.155350   44.922920
H   44.470013   59.912476   23.209505
H   25.310593    0.542774   20.275871
H   20.309368   31.476082   55.950100
H    1.737585    5.657434   70.091888
H   10.670121    0.923836   77.710503
H   39.296783   59.548607   45.177963
H    5.836959   14.974477    9.637697
H   27.644432   30.243702   77.682762
H   72.059532   74.569839    4.720758
H   66.907021   67.096603   99.574020
H   17.856962   61.209999   85.208740
H   91.923630   77.372910   49.662029
H   91.787216   38.744854    4.331024
H   99.769379   17.299278   32.702301
H   63.092789   74.361816   82.668167
H   28.810600   91.394814   78.709000
H   82.705513   80.079208   50.244328
H   62.820229   76.934990   87.968079
H   14.452856   50.623871   83.733620
H   34.961750   34.574814   35.230164
H   80.766327   94.960632   94.138000
H   86.304329   35.692768   14.747316
H   77.345207   37.961018   96.946548
H   80.197258   26.532753   56.071304
H   60.482021   60.007725    6.676265
H   39.100475   23.281469   75.454552
H   74.984993   34.317493   90.614143
H   78.944595   52.918526   57.752769
H   38.791656   96.909927   70.690292
H   31.828527   86.864227   40.119022
H   31.354988   16.439734   52.494896
H   99.885292   71.544334   66.362206
H   34.032112   39.992424   14.063438
H    0.838733   49.170059   95.732193
H    3.746189   28.059639   35.252831
H   61.161949   81.976868   27.799309
H   91.343613   30.202036   74.726570
H   88.380051   40.326710   57.897072
H   91.543602   26.411434   71.511276
H   61.970699   87.124481   58.079071
H    4.487858   23.661457   24.520823
H   79.042458    9.765174   67.578873
H   43.571983   64.186050   66.299500
H   33.851013   37.592010   29.804565
H   43.725761   42.824600   61.240524
H   25.659403    9.910336   47.650467
H   97.305626   65.030556   97.494118
H   45.248676   10.885315   68.011360
