100
TIME:    0.434, STEP:   434
H   87.973061   82.221352   98.748672
H   89.197701   28.275505    5.377028
H   87.221161    5.127889   18.243996
H   81.549454   14.769148   16.373899
H   91.283752    7.544534   53.937492
H   21.286407    0.741295   21.725771
H   30.224995   90.642998   24.392138
H   85.774750   26.148647   68.346474
H   42.959450   44.566116   72.769264
H   62.980049   22.617447   24.684626
H   59.885406   83.705551   97.944695
H   39.276424   45.444771   62.036369
H   15.655990   35.449905   81.992607
H   33.592701    3.739145   90.267250
H   85.781136   31.256842   29.909952
H   84.073578   73.777107   97.014145
H   89.173607   10.698105   12.869733
H   10.418834   73.595184   84.500290
H   52.022369   96.558746   86.227631
H   80.901405   96.432434   45.796379
H   38.522369   13.010857   45.463104
H    3.962518   44.672768   82.301521
H   79.949501   91.092522   19.932823
H   78.718216   41.886906   74.842880
H   14.061434   51.755054   39.763382
H   44.668980   14.677808   48.494270
H   24.654093   24.435772    8.578344
H   95.921745   76.696838   81.120438
H   20.608200   88.468071   36.656219
H   17.635107   80.098251   17.890320
H   33.174076   60.961525   75.068779
H   93.160492   40.520210   59.086525
H    0.927502   36.728279   36.895103
H   96.439339   33.949097   53.467278
H   69.984077   26.113235   51.155144
H   10.289544   18.578646   19.150999
H   21.425594   88.641457   42.662731
H   46.051514   51.010784   53.066647
H   31.208813   71.243370    0.529227
H   22.315826   71.554268   72.181145
H    5.583408   71.070992   52.565678
H   92.615715   31.335764   23.190054
H   14.979358   66.102509   32.821693
H   51.645340   20.044874   23.166122
H   19.009537   14.768359   93.245667
H   72.408562   71.362846   85.020226
H   40.662708   49.153553   31.331732
H   56.262592   99.851700   95.431427
H   77.715202   96.506027   27.161139
H   34.992153   37.355152   53.309410
H   43.511509   27.743963   57.992908
H   26.224016   23.466652   45.571297
H   17.881853   24.525208   77.664711
H   66.637848    0.120662   50.967365
H    6.208220   96.551239    4.088827
H   94.109268   12.075830   77.852417
H   23.765770   77.023994   97.264351
H   93.742371   35.900932    2.375750
H   24.505753   57.106293   78.165634
H   30.379150   61.147636   51.265587
H   87.077469   58.386406   80.557343
H   83.507629   23.905746   75.718628
H    3.670262   77.557838    3.783866
H   72.842171   44.155334   15.356649
H   49.549126   26.180977   35.978607
H   74.684090   20.697681   71.847328
H   52.748192   63.364613   88.015366
H   50.386482   42.358505   86.950310
H   78.533348   18.601845   33.012783
H   39.178108   69.973778    0.818128
H    8.250380   65.875267   56.942265
H   38.181797   37.121986   88.397102
H   78.693985   96.840279   50.620945
H   20.638275   21.914988   77.414696
H   83.096359   29.261229   34.298512
H   35.918911   35.387733   66.725723
H    6.358972   88.928337   98.713318
H   52.370438   22.342190   38.408680
H   82.355583   52.231167   22.527710
H   78.241318   85.318092   83.531738
H   19.374859   33.771587    5.928095
H   73.887154   47.061905   50.488937
H   45.256161   14.501327   71.236237
H   80.025360   49.299534   23.789040
H   31.197981   21.736481    5.681062
H   41.304317   24.995384   71.921501
H   96.140587   71.797585   44.237942
H   62.941711   70.546944   91.228004
H   64.689644   70.007774   24.649887
H   27.964706   91.428360   39.727154
H   41.783634   96.866882   42.627026
H   10.398417   28.146704   41.793159
H   13.130295   40.634842   52.490349
H   89.175331   39.558014   56.080051
H   49.088566   10.853939   26.059147
H   29.768234   78.593132   45.032356
H   28.153223   92.586906   12.229221
H    8.458659   19.932922   49.091568
H   88.037407   38.721096    8.698277
H   66.194351   67.556969   55.885727
