100
TIME:    5.440, STEP:  5440
H   49.437172   23.145885   94.165543
H   50.235237   99.648163   21.114525
H   73.267395   65.279358   59.489628
H   82.389694    8.521805   41.978264
H   46.445465    8.797411   18.204472
H   43.663097   95.314537   17.487478
H   67.858315   28.672375   15.868165
H   92.313019   59.230083    8.710528
H   19.902351   63.259567   57.659409
H   26.178907   94.493706   20.713652
H   94.239487   85.132889   15.741508
H   48.212563   96.369926    5.704298
H   96.929306   32.623482   84.476006
H   85.724861   88.308266   71.227287
H   46.669930   84.104935   89.276398
H   82.792847   35.926834   81.473358
H   86.654610   41.784000   68.613007
H   17.398397   30.126648   10.947580
H   29.998283    6.566449   49.961323
H   45.952736   90.289589   86.713142
H   41.459404   14.647736    9.593750
H   83.918442   51.305664   56.012024
H   13.111777   50.379051   76.705215
H   13.603199    1.906466    3.050879
H   35.017731   54.741402   76.715492
H   21.747732   65.840576   78.864319
H   92.981476   16.342133    7.903451
H   73.529762   10.360497   46.591301
H   29.458855   42.651096    0.021268
H    9.587473   56.199760   15.853024
H   30.152927    9.871247   78.983452
H    9.242151    2.212748   95.656029
H   53.544270   70.466103   87.875114
H    7.954041   75.179222   42.571983
H   45.548172   47.697861   55.985046
H   45.527256   11.512636    2.323445
H    1.566208    5.310192   37.115948
H   39.146656   59.401775    6.328027
H   15.447181   62.888542   17.135870
H   50.805782    2.908222   66.043419
H   63.466171   42.841751   70.509743
H   42.704277   56.009171   58.371357
H   58.098743   96.122009   94.411232
H   31.981258    3.953038   12.630717
H   84.775764   17.258247   21.626104
H    7.902853   66.676498    5.261771
H   84.234665   20.683792   77.684776
H   56.529942   51.400208    5.174291
H   24.047302   81.908875   27.469673
H   39.970913   13.531630    3.184411
H   43.129581   44.446854   10.773339
H   69.506355   58.948864   16.935509
H   21.713490   53.551697   86.922508
H   50.711861   18.443214   71.868736
H    7.653744   35.340412   46.618168
H    0.371219    6.811371    7.436371
H   41.123749   32.578026   73.376686
H   20.981903   63.146828   73.433212
H   19.318380   68.622459   93.851219
H    0.035927   45.925190    8.884041
H    2.859585   25.587223   90.250969
H    5.841157   77.307327   49.212593
H   43.382229   36.067673   60.433319
H   16.594208   71.397125   79.444550
H   48.246330   26.359985    2.172168
H   67.158195   71.834587   67.838585
H   51.107330   36.437572   29.706131
H    4.587689   28.657221   26.266058
H   28.030790   58.902626   19.044701
H   40.599350   21.757973   90.278046
H   49.288506   25.263031   96.890388
H   25.414551   70.981903   54.913986
H   52.293396   49.220520   22.265892
H   10.455013    5.121900   79.927452
H   24.455973   36.395931   13.786819
H   54.265572   56.226791   29.886854
H   60.872593   55.043835   87.257423
H   87.561417   95.011864   14.869754
H   22.381275   37.539730   78.378014
H   32.739464   12.675929   52.260345
H   17.324030   85.560959    5.125426
H   49.498070   79.750061   31.885202
H   61.968376   98.095398   48.022297
H   24.413595   77.671555   66.556122
H   87.445915    8.608891   20.405281
H   26.089054    8.873580   19.553497
H   30.480032    7.820578   82.943665
H   43.519157   69.760193   39.173386
H   68.578720   91.282127   83.698616
H   85.369659   85.459152   18.684797
H   46.649895   67.174469   48.344646
H   80.803810    4.619628   37.180565
H   34.167847   90.746834   39.688129
H   73.022346   43.211620   93.610054
H   62.537148   62.448589   41.090733
H   43.243301   80.912262   86.465714
H   30.800375   79.871223   24.329941
H   26.833288   62.556030   68.980843
H   49.563965   60.299999   89.379707
H   77.109741   39.034901   73.688797
