200
TIME:    0.057, STEP:    57
H    3.847933   63.082333   12.210390
H   26.333199   30.206343   82.468109
H   21.973345   61.128273   36.334465
H   11.673960   74.834816   49.285099
H   17.153204   79.091141   56.289600
H   95.571899   57.781902   70.966606
H    0.707930   55.433975   46.109257
H   98.787796   80.984009   31.568054
H   79.996613   90.249718   52.183701
H   17.303173   77.462273    3.290496
H    5.815057   90.684883   87.178696
H   30.021072   37.138309    4.022654
H    6.682666   80.934502   68.791954
H   13.053711   52.434849   33.447536
H   28.457241   70.535843   43.428860
H   34.634491   33.506432   58.270702
H   75.598572   99.147728   24.316984
H   40.907787   74.369713   46.778351
H   58.936687   36.326908   39.789906
H   89.474045   82.217796   44.564709
H   55.888885   67.623055   34.224529
H   94.103081   41.819511   77.626793
H    0.485250   63.872017   53.527191
H    4.761372   86.438698   92.168991
H   95.292389    5.343835   51.940281
H   18.812578   54.215401   13.000608
H   95.352257   55.124805   41.723999
H   90.310577   62.580158    0.249753
H    3.361038   62.092110   39.409931
H    1.319072   15.862011    4.955977
H   13.600413   43.803776   15.971075
H   35.253845   59.217270   89.097656
H   31.544998    5.047790   70.943871
H    2.483463   63.378265   35.091652
H   56.770405   97.362717   35.611080
H   39.038998   54.094433   77.378021
H   81.012039   78.378792   84.581093
H   41.967033   40.021568   23.395475
H   59.843117   52.953583   40.363865
H   91.837746   40.441029   70.844818
H   80.450974   13.774981   95.449989
H    4.230674   46.944286   45.257389
H   79.996841   91.985825   43.533077
H   37.688950   54.346577   12.203397
H   22.524567   70.711830   37.759987
H   43.635044   18.601133   40.697624
H   76.525589   35.177746   92.166389
H   94.571030   65.553398   54.226456
H   80.003136   35.696758   61.034393
H   68.665680   16.975664   13.454738
H   82.561523   72.812378   35.121185
H   28.133673   32.548199   59.606510
H   47.241970   99.659302    5.534039
H   25.130190   78.321869   78.993179
H   84.944901   80.454796   96.691757
H    7.651585   76.858322   72.655823
H    5.952742   16.052956   51.617619
H   65.409348   54.325237    8.606380
H   32.042641   70.942337    2.700423
H   47.335808   97.016762   70.377174
H   51.012196   18.946785   47.583172
H   86.648689   15.991372   47.663719
H   66.405708   21.415493   91.058823
H   19.692122   64.891251   99.581734
H   68.406624   73.350937   10.446301
H   45.918156    9.451592   29.573898
H   93.010841   27.022074   82.054268
H   98.366219   91.033867   83.648468
H   10.013310    3.380265   64.296066
H   46.290382   38.440414   50.992367
H   58.545444   73.426994   68.386337
H   37.283318   28.632019   46.045822
H   71.685684   22.499355    5.623268
H    1.903488   12.987084   55.245506
H   76.916733   97.908989   76.217369
H   48.688217   25.537422   64.073257
H   96.201065   23.137541   74.734093
H   33.333275    2.637590   54.225212
H   10.139267   21.540089   38.991566
H   71.033546   91.687553    2.940348
H   35.601154   33.194801    3.849976
H   18.589930   71.881042   93.514549
H   11.713684   11.658944   95.634064
H   30.641685   55.875572   87.887054
H   45.424885   97.388748   62.968304
H   19.511473   92.177200   31.592297
H   27.653364    2.402778    1.351794
H   76.853325   25.355255    4.539872
H   60.090160   71.595512   76.500351
H   24.360722   77.844604   56.878796
H   48.913757   33.313019   81.568459
H   85.330139   86.929855   94.374771
H   38.566383   18.926001    0.941724
H   68.234268    1.008256   64.079819
H   20.487841   59.401627   60.318039
H   76.850533   23.617794   37.665756
H   76.823189   20.608751   90.447792
H   11.925476   25.595041   46.860912
H   41.164558   71.611214   52.232723
H   64.022537   94.953522   27.205729
H    1.701511   75.366638   60.322277
H   83.767326   73.887947   66.874039
H   19.385977   43.857651   27.945391
H   13.082417   67.601608   82.895256
H   25.581326   29.877651   19.154472
H   80.178329   35.732658   52.458424
H   56.989429   27.824499   57.110901
H   65.829048   27.248104   25.817791
H   68.145889   42.399632   90.283607
H   98.488327   30.611906    4.641615
H   44.786831   97.657028    0.667097
H   78.645866   58.742794   88.426666
H   60.272442   78.151070   97.915878
H   63.844078   23.342600   79.673065
H   69.957146   74.348221   33.189213
H   21.506702   11.150961   70.678780
H   40.098949    5.865815   82.046738
H   41.699574   17.989029   37.636497
H   11.912511   50.843014   92.584106
H   65.953247   43.022457   42.516140
H   38.644600   20.543362   93.516418
H   26.185188   31.815166   42.805195
H   27.824469   29.540646   18.600456
H    6.773508   73.904602   25.878923
H   82.390846   13.480367   98.865669
H   41.017895   57.345032   29.064766
H   99.935387   48.335464   78.122223
H   79.431519   86.134697   33.457005
H   90.215683   59.107841   89.060654
H   58.875267   25.016722   63.383942
H   41.221771   91.719818   96.417900
H   88.724182   84.236343    5.011456
H   93.035316   73.691299   96.013878
H    9.894001    8.310922   47.454357
H   95.385780    4.679008   64.826073
H   67.232140    1.861714   86.377625
H   68.589745   86.098198   46.228592
H   89.657417   69.934090   86.089859
H   41.529922   41.774437   71.593369
H   43.348816   17.866873    0.542447
H   41.557850   68.450813    8.998695
H   65.662842   35.450542   41.980865
H   60.888302   53.392708    5.556619
H   66.098534   33.152157   75.091927
H   31.700077   75.836266   43.084522
H   39.234982   58.822460   38.610683
H   40.403099   97.579201   48.592209
H   47.649368   80.230652   69.874901
H   60.293064   72.432175   99.763680
H    3.599227   86.630119   96.836151
H   82.670570   58.202053   52.725716
H   26.084217   12.173279   53.887135
H   67.674416   38.681263    9.889057
H    5.072305   96.941795   80.474747
H    6.355876   49.046165   57.442173
H   58.069565   43.075146   48.430866
H   57.395702   55.395905   78.588913
H   43.444286   39.596062    5.436763
H   20.757406    2.423870    9.391289
H   65.730774   64.410583   71.218292
H   52.158367   91.844040   88.281570
H   52.196194   24.004656   37.129337
H   57.342113   42.548412   37.308144
H    4.557487   14.803634   79.028564
H   60.706390   15.878854    8.026441
H    8.760774   70.261314   63.302185
H   78.051010    0.526768   50.281708
H   23.472351   22.606449   40.445423
H   91.586365   28.765331   37.289051
H   18.121708   11.840710   92.464111
H   82.861023    3.457525   35.991432
H   52.484840   72.243713   56.896152
H   34.137119   85.317520   95.573135
H   73.474968   78.931076   70.005173
H   79.943390   96.413177    7.835511
H   95.257088   46.672356   23.111176
H   37.297699   47.204494   79.252716
H    0.108116    9.026337   62.540203
H   80.281563   25.633722   71.275185
H   95.005707   52.492073   83.803467
H   84.758873   78.631561   45.974155
H   15.536540   29.882656   62.935452
H   74.059692   90.355637    2.448098
H   47.496223   24.881416   70.457909
H   83.156441   96.271660   79.150772
H   95.429314   34.679596   83.038307
H   24.980213    7.659251   95.210648
H   99.212791   59.473373   19.123320
H   11.917925   60.357338   64.451935
H   46.285778   59.268787   63.390949
H   39.078094   37.078876   80.608284
H   49.153111   79.956009   26.955309
H    0.035617   13.170388   53.614185
H   38.300816   56.226971   29.625050
H   91.174622   62.429268   22.414896
H   74.881363    9.934400   32.073570
H    8.244859   80.569466   97.290054
H   34.228031    1.043069   52.127689
H   14.353657   11.099846   86.201469
H    9.916488   41.192474    0.291286
