200
TIME:    0.427, STEP:   427
H   15.217354   61.854382   18.537161
H   29.631023   35.608150   97.488632
H   14.218281   77.323112   54.558952
H   24.146009   79.159462   39.609692
H   13.224716   88.468735   50.969891
H   83.535156   47.739521   60.014362
H    6.068519   55.171448   53.270893
H    7.079192   96.961487   18.434624
H   95.022781   84.702766   43.157555
H    4.278474   72.279472   88.696434
H   18.711645   98.588936   98.871048
H   31.551071   47.014141   21.652420
H   15.763858   93.214012   53.627464
H   95.564941   53.995899   51.276821
H   10.593483   73.384125   42.518482
H   23.849693   18.261490   50.289021
H   93.004425   16.476633    6.352907
H   32.121586   92.156654   40.191170
H   71.247246   22.931883   45.236645
H   90.651184   77.136620   30.221676
H   60.329269   86.093132   17.273159
H   85.865929   55.962120   63.368446
H   89.405426   61.181816   44.649246
H   12.569098   89.764084   90.999710
H   11.374479   20.224878   38.737690
H   18.506296   70.635231    0.780378
H    2.517042   62.548969   56.600555
H   98.801788   77.843582    1.223320
H   18.944672   50.845772   37.243374
H   84.599098   25.773834   92.157257
H   13.117349   59.261845   16.423441
H   28.525520   67.889145   98.207077
H   22.604950   13.009358   75.463295
H   90.237541   63.781937   41.558861
H   39.014515   82.074020   32.796673
H   26.952854   45.658268   81.620804
H   91.631699   70.392876   87.358803
H   23.665239   49.592529    6.759562
H   46.149345   39.704414   48.588314
H   88.289391   38.919498   56.391693
H   80.559952   96.488319    7.731215
H   22.647081   39.185612   34.286282
H   73.334854   83.486145   57.272015
H   36.864670   72.316246   25.436333
H   35.166286   82.000511   51.112190
H   38.428249    8.971856   44.721634
H   83.498093   17.050648    0.279294
H   85.563232   65.547752   40.925064
H   94.312294   21.655773   61.301155
H   55.425476   18.645395   97.801064
H   73.759796   68.129227   20.457756
H   13.989703   38.916607   67.562157
H   57.219540   89.070854   10.374519
H   19.623465   86.129944   84.472382
H   69.283585   72.226112   84.725586
H    2.908447   67.743256   84.771606
H    4.896810   17.453102   47.648655
H   69.451706   62.926540    1.928321
H   24.235275   78.089859   11.649292
H   38.778259   94.939125   63.537346
H   49.813885   11.727985   36.772968
H   93.296837   16.867872   50.499359
H   76.599113   29.080307   78.576065
H   28.656870   65.419128    7.842643
H   74.354424   78.866837   25.576340
H   31.404308   23.826221   36.224594
H   79.190041   19.217527   89.698616
H   96.294228   91.875084   90.973831
H   23.174103    8.380284   59.612915
H   44.160522   44.889275   50.972607
H   58.383129   79.826454   78.283340
H   26.884905   18.906506   43.455833
H   83.428848   28.895992   93.233986
H   13.957537    4.854310   66.016457
H   81.422043    3.898674   58.819984
H   58.040405   12.474659   61.655506
H   94.637192   36.911762   69.500481
H   19.628984    9.375107   41.573082
H   12.952263   38.024719   30.796757
H   65.458366   89.624031   85.393280
H   51.304813   26.941559   98.357529
H   34.858994   65.227524   82.076256
H   10.270136   15.717534   84.808334
H   18.576008   67.974419   99.946381
H   32.249111    1.301289   52.482731
H   29.935648   79.231491   23.890079
H   44.236347    3.173776    2.200034
H   73.776390   11.584447   18.495420
H   71.409286   72.512413   77.844299
H   22.507504   94.429001   52.808208
H   33.403835   36.507103   79.922722
H   82.752853   90.176163    2.448154
H   56.143021   14.753084   90.403969
H   51.642456   87.715332   74.239349
H   29.863317   54.396667   75.728119
H   61.527962   31.890232   20.269306
H   81.842262    7.811240    6.382840
H    1.753948   31.344534   50.364101
H   32.780617   67.904778   53.543949
H   70.455872    0.966103   27.296061
H   18.209440   85.596741   77.745369
H   97.526024   79.485710   64.833099
H   27.055731   30.335987   33.116043
H   30.861595   68.284744   97.588326
H   25.090851   25.015247   31.150284
H   94.826233   17.617413   35.135845
H   74.516663   32.418732   55.388947
H   63.649559   41.454227   11.510638
H   77.548889   37.729183    8.174992
H   10.373839   25.453100    6.452490
H   49.654881   94.441772    0.927419
H   93.502663   68.047791   92.641220
H   53.846165   82.444664   89.867859
H   62.590721   15.365858   70.131744
H   57.609886   89.755478   20.215918
H    6.406914    0.326668   87.370445
H   24.886471   11.075857   86.360092
H   39.822361   36.200813   30.240562
H   25.964081   64.734383   74.297516
H   75.717575   50.407101   56.318592
H   42.506294   23.002087   81.392166
H   10.220413   23.050137   53.688793
H   36.744759   13.935740   29.576504
H    1.322144   60.589458    9.676183
H   71.320869    4.322037   86.628403
H   54.573345   67.468796   21.920773
H   90.738457   50.063065   63.832825
H   71.338333   89.036613   36.581928
H   94.768982   45.714706   80.628723
H   76.808998   23.263010   69.687424
H   56.157608   78.508759   10.557667
H   74.522293   87.906082   13.736905
H   91.827126   91.692780   98.766182
H   91.751183   17.797554   52.008945
H   13.664089   97.988876   47.823891
H   57.377480    1.386853   80.926651
H   69.202309   87.041039   64.647858
H   92.813393   58.382195   80.243683
H   51.201096   46.948769   71.505859
H   43.549240    0.121175   90.261459
H   59.875492   57.569462   20.950546
H   48.629608   46.692646   50.606163
H   48.994114   60.202896   93.076820
H   49.144341   19.758585   81.223213
H   49.091816   63.565224   55.183369
H   52.791843   65.197662   20.890079
H   49.154015   95.958870   45.942940
H   37.546295   66.457840   67.752098
H   70.184418   56.984753   96.085472
H   15.422898   90.716400   82.998985
H   69.628883   64.485779   49.932480
H   41.659168    1.935500   42.292171
H   84.862907   24.846348   96.900017
H   14.853217    5.435052   71.331451
H   21.027794   58.817551   64.136597
H   69.053375   43.992580   59.814114
H   61.268688   66.491539   82.970016
H   48.704716   33.659554   14.105162
H    3.823184    1.029722   95.669937
H   61.583145   49.313843   85.417358
H   55.792820   76.812225   78.443848
H   34.824215   22.087217   33.923962
H   73.268776   26.416842   37.154297
H   18.138752   25.673157   63.197948
H   57.163681   28.433596   11.661952
H   15.135533   58.489258   61.279594
H   71.679779   94.542366   54.204094
H   23.795570   39.440670   55.745411
H   96.613907   27.562080   36.415371
H   35.006741    9.048532   88.297546
H   75.792542    7.857683   35.960381
H   39.702858   58.501385   58.032360
H   41.286053   69.419083   85.162369
H   68.923248   70.064957   78.577858
H   62.746429   93.629822   90.438690
H    6.680884   48.670952   23.466152
H   33.496696   58.762760   94.730545
H    3.387333    9.379196   67.271347
H   70.819283   17.032419   66.947716
H   77.405075   56.461037   89.022964
H   78.003731   91.890610   37.371441
H   22.999496   30.334316   76.442909
H   57.025780   89.971634    9.771255
H   55.553143   25.566460   84.069817
H   87.941216   80.223610   77.626419
H    3.175210   37.801697   84.890114
H   37.863434    1.321403    3.408605
H   81.437141   75.145576   32.069736
H    1.202993   62.007309   68.680603
H   53.014103   57.256077   68.065628
H   56.753532   24.837475   77.966072
H   46.119930   90.011093   22.242517
H    8.254204   21.972822   62.089870
H   31.836449   70.994179   37.081902
H   78.477325   45.902740   21.204588
H   75.784683   10.842307   27.004381
H   10.704289   90.658424    9.778485
H   23.474846   93.689636   41.692928
H    9.419622   12.135136   69.653770
H    6.057353   28.657305   95.150780
