100
TIME:    4.838, STEP:  4838
H   90.148598   78.352119   94.716690
H   66.861519   67.029419   83.157471
H   62.915489   21.968884   66.556435
H   82.288651   33.325615   74.976692
H   51.837524   60.544540   34.525681
H   53.000454   95.966728   57.870251
H   99.411507   88.022354   68.790909
H   39.629036    7.151055   63.985874
H   34.700661   21.139542   95.551567
H   42.629845   85.849876   97.139038
H   50.236053   60.909962   73.728226
H   71.189384   66.194603   48.554634
H   35.344254   69.026772   44.293945
H   15.532128   90.163795   25.413881
H   39.348854   37.877441   18.213593
H    6.997956   88.579788   31.445225
H   35.064034    1.967799   13.810575
H    4.525380   59.415691   31.815401
H   20.621887   81.313660   18.247377
H   62.170250    3.075640   45.726143
H   77.182945   74.579620   25.932976
H   26.204117   50.506500    7.277855
H   21.149757   55.275078   93.928574
H   69.538864   94.704803   47.761497
H   56.549225    2.481094   72.269569
H   24.491987   83.633453   35.474705
H   44.892952   41.367382   95.959267
H   24.325722   82.261200   26.690287
H   16.369102   88.033409   28.476704
H   86.504105   71.099113   67.995735
H    6.460014   55.887669   26.611778
H   71.231514   18.844376   51.386147
H   11.139063   14.511312   33.642204
H   82.518219   30.348816   67.933952
H   60.511826   93.204269   19.329147
H   93.197037   64.361595    4.216924
H   43.826004   27.358387   89.680893
H   64.026375   70.417458   63.844357
H   40.859646   76.005852   75.474243
H    7.508276   59.266724   18.677729
H    4.609133   22.187498   56.326885
H   96.808586   28.989424   30.092897
H   52.913364   92.511993   50.927078
H   70.419968   93.848511   53.769646
H   36.995136   41.008110   70.111229
H   15.670830   55.194263    2.814841
H   79.531540   87.944298   71.906914
H   56.497791   45.199799   67.925957
H    6.451869   31.766491   51.485489
H   27.345043    4.368803   45.287544
H   43.175510    2.565441    4.427105
H   40.249611   14.808764   56.457375
H    9.226029   50.061096   21.885092
H   64.651512   28.267418   45.303429
H   55.586365   82.581306   41.497089
H   99.619644    7.444616   27.929871
H    2.960989   49.948357   16.121651
H   65.807999   19.998255   88.938828
H   71.838707   43.186829   40.067207
H   39.760342   99.651886   26.006355
H   64.885437   53.581448   37.187111
H   27.205069   82.910660   76.450958
H    2.511698   77.146530    1.714272
H   75.257118   68.117798   95.786072
H   24.350229   74.441742   46.111195
H    4.139961    1.761830   32.243645
H   99.406219   15.625375    0.640104
H   46.172081   94.227066   97.486977
H   98.026199    2.158505   56.802895
H   28.404535   91.479492   91.545685
H   68.404137   66.222473    4.111516
H   75.051300   90.960999   10.837070
H   91.544281   78.998573   37.702614
H   23.705517   43.221546   15.696037
H   95.431282   35.537060   68.151215
H   40.032188   17.642733   70.392441
H    6.213610    7.220257   76.611092
H   59.278362   34.375210   81.624733
H   93.513374   39.307995   71.663200
H   62.260529   45.466236    4.123260
H    5.544151   79.332993   69.144875
H    4.325583   75.823380   82.226707
H   23.888681   88.027771   90.690247
H   82.996216   26.157377   21.540733
H   16.758585   46.265816   78.762611
H   39.945820   86.762459   77.748550
H   90.273796   51.590912   54.238068
H   33.829819   17.952673   45.430199
H   56.086044   24.799894   88.622200
H   38.594410   10.225945   97.165131
H   22.013603   34.670101   35.631512
H   36.261906   59.343033   25.712103
H   95.578804   72.685280   93.134506
H   14.838387    6.692679   53.019283
H   72.944649   16.370628   27.257717
H   93.520523    4.684797   17.560204
H   78.584801   45.323467   58.951187
H   24.624105   57.430359   78.616737
H   78.242004   57.705013   39.804123
H   39.717365   54.480808   31.680269
