100
TIME:    1.992, STEP:  1992
H   82.611725   39.344711   97.322281
H   45.859169   12.747458    3.654994
H   13.995520   17.216465   99.951424
H   81.810959   50.580162   30.974472
H   77.328888   32.425098   11.693769
H   97.127205   99.050011   76.020653
H   48.568966   95.846260   46.229851
H   63.319023   60.934231   25.294960
H    4.660835   94.770615   74.698540
H   20.403879   44.985527   85.694298
H   14.964035   46.394855   47.869625
H   79.811859   23.539110   51.136055
H   16.551609   41.188713   27.140606
H   56.449303   98.935951    8.831425
H    4.729626   92.094025   55.019981
H   21.431049   37.501595   67.688248
H   63.913635   13.731148   54.720352
H   43.712692   97.829506   30.487427
H   76.288933   61.922333   68.307312
H   38.849945   63.508831   51.957253
H   46.068527   57.908283    3.178429
H   53.353825   46.729149   49.640350
H   59.147957   78.421410   75.356491
H   33.963158   60.572636   59.132004
H   58.338371   28.190407   51.259323
H   37.525135   68.251389    2.462486
H   90.306404   59.673962   39.495380
H   64.461685   49.419537   32.616688
H   54.485001   29.821512   63.009300
H   77.375710   41.538132   41.746517
H   94.461372    0.677880   51.783649
H   91.533386   97.477318   14.854622
H   10.670982   22.737873   77.252045
H   62.268028   91.167923   87.831802
H   31.257431    8.340238   46.026596
H   45.751537   40.966198   13.791947
H   70.857025   31.585749   65.427124
H   81.657707   22.494839   63.010006
H   61.169304   37.984673   51.203903
H   75.568733   25.698618   94.760391
H   99.111046   24.533964   89.275192
H   52.591583    1.258464   96.387711
H   28.399099   75.445374   45.357277
H   52.156319   46.157005   75.500656
H   83.864037   53.295055   26.571211
H   52.387997    0.911134   91.259010
H   57.113758   33.198158   44.644722
H   56.345798   15.892870   91.831627
H   23.258787   67.470970   65.014694
H   67.667076   61.068913   44.340977
H   43.392643   77.328636   74.420181
H    1.941038   78.896790   43.291401
H   50.201508   33.559021   87.177605
H   30.562893   74.707069   19.717768
H   82.177216   33.134060   17.309401
H   96.058670   10.438452   24.814423
H   22.536310   32.068886   45.443275
H   77.728607   88.767532   62.246414
H   47.381012   22.935656   58.557381
H   27.567448   80.899841    6.952962
H   85.357315   85.934639   59.082691
H   28.211590    9.402746    5.221595
H    9.348404   71.313759   96.899094
H   79.826965   52.630478   73.059822
H   11.387214    1.745775   81.072632
H   78.973610   43.244759   63.967937
H   27.747034   17.231955   63.236156
H   42.764793   31.462429   61.431721
H   56.184708    6.653900   35.297905
H   70.739563   48.335587   97.538544
H   58.777596   59.864746   38.256535
H    9.718020   85.414368    2.466107
H   77.109344   19.774410   10.670094
H   86.351494   23.321486   84.818077
H   58.212486   31.478079   52.405254
H   72.752647   35.240952   61.891987
H   47.815994   53.894356   26.278524
H   25.568111   20.468256   24.450329
H   57.036102   47.666843   39.902672
H    1.833843    0.464848   49.308571
H   49.863979   49.889812   99.046349
H   90.784836   57.236832   20.207788
H   43.836697   40.505371   19.627903
H   87.201668   82.619606   81.482697
H   55.335785   24.283119   54.650360
H    5.442562   82.224831   80.113716
H    0.195886   58.518295   18.529692
H   88.022430   45.810150   75.033455
H   97.021187   83.261070   11.902468
H   90.218765   27.318863   95.427742
H    5.543460   80.993301   75.529129
H   25.675287   45.322620   71.476982
H   13.094696   87.319443   73.021622
H   39.762409   34.061901   61.127686
H   22.151363   71.299072   61.860588
H   58.452621   17.069551   64.559540
H    4.487084   81.997383   22.627747
H   14.179084   33.198364   24.163506
H   13.818867   45.437023   78.189896
H   62.951279   27.536518    5.827458
