200
TIME:    0.751, STEP:   751
H   25.173052   60.779095   24.077360
H   32.518738   40.338177   10.642076
H    7.427584   91.504539   70.517693
H   35.067413   82.946449   31.137173
H    9.784725   96.680466   46.311550
H   72.994873   38.945652   50.424534
H   10.762702   54.941559   59.542164
H   14.339850   10.951632    6.934227
H    8.180355   79.845436   35.253578
H   92.873047   67.741020   75.916588
H   30.004629    5.510042    9.109749
H   32.890854   55.662167   37.090405
H   23.716038    3.967280   40.348289
H   80.251373   55.362873   66.889488
H   94.950882   75.878296   41.721287
H   14.405761    4.911865   43.299656
H    8.245656   31.651155   90.621834
H   24.428331    7.732703   34.422935
H   82.027306   11.202113   50.006222
H   91.681976   72.687157   17.661831
H   64.217606    2.266861    2.429531
H   78.652855   68.346458   50.882759
H   79.703125   58.826073   36.875046
H   19.431776   92.718033   89.983749
H   25.457130   33.255627   27.176502
H   18.238092   85.014412   90.079422
H    8.791595   69.050133   69.627594
H    6.237883   91.209274    2.075860
H   32.590927   40.997627   35.346172
H   69.957893   34.453552   80.949554
H   12.694341   72.798103   16.819567
H   22.633690   75.482895    6.184296
H   14.776367   19.980934   79.420845
H   79.514336   64.135422   47.222038
H   23.465775   68.686081   30.331745
H   16.369312   38.270924   85.336105
H    0.931040   63.399803   89.791176
H    7.638981   57.973587   92.192207
H   34.158043   28.102648   55.790264
H   85.182182   37.587132   43.735443
H   80.656357   81.352730   18.485554
H   38.773911   32.391529   24.678679
H   67.501114   76.043182   69.302872
H   36.142868   88.052513   37.023827
H   46.236797   91.885735   62.804390
H   33.868786    0.539789   48.245361
H   89.603745    1.176967    7.382512
H   77.675323   65.542809   29.277359
H    6.842560    9.360591   61.534752
H   43.830917   20.107538   84.094246
H   66.052338   64.028305    7.617545
H    1.604437   44.493267   74.528038
H   65.959312   79.808517   14.606154
H   14.801282   92.967285   89.270386
H   55.569351   65.020454   74.247101
H   98.755180   59.760754   95.381104
H    3.972158   18.679176   44.173130
H   72.991501   70.458488   96.079994
H   17.398552   84.348770   19.485462
H   31.284622   93.119789   57.547874
H   48.764553    5.406658   27.306429
H   99.120689   17.635405   52.983643
H   85.525230   35.791847   67.645218
H   36.507439   65.881378   15.076725
H   79.562767   83.696976   38.825550
H   18.694294   36.413658   42.048447
H   67.087502   12.383112   96.392586
H   94.479836   92.611717   97.388474
H   34.698685   12.758679   55.511993
H   42.295456   50.536385   50.955303
H   58.240993   85.430305   86.949905
H   17.778955   10.390314   41.187843
H   93.712051   34.497372   82.384712
H   24.513210   97.732605   75.449318
H   85.367233    9.143479   43.585518
H   66.229889    1.036046   59.538303
H   93.267746   48.973515   64.917534
H    7.628623   15.274971   30.493919
H   15.416313   52.458672   23.617741
H   60.575447   87.817055   70.027802
H   65.056122   21.465630   93.547165
H   49.105927   59.400223   72.060020
H    9.006056   19.271542   75.328506
H    8.010387   78.569084   10.506037
H   20.711407    4.727469   43.300770
H   39.063366   67.895248   17.145435
H   58.757664    3.848920    2.942847
H   71.081993   99.525528   30.715994
H   81.326645   73.300957   79.011047
H   20.884686    8.952121   49.243694
H   19.822405   39.304085   78.481590
H   80.495987   93.018875    9.517735
H   71.535057   11.098963   81.176277
H   37.113724   76.075043   83.135803
H   38.072739   50.013947   89.222351
H   48.110359   39.134205    5.035625
H   86.237343   96.604317   20.336655
H   92.847488   36.378689   53.431759
H   25.439003   64.659142   54.692158
H   76.089386    6.230521   27.375162
H   32.665249   94.554993   93.002083
H    9.573452   84.387535   63.045898
H   33.771950   18.494854   37.643372
H   46.429817   68.882950   10.455209
H   24.661354   20.757359   41.654724
H    7.653500    1.754459   19.966393
H   89.864838   36.441788   53.881073
H   61.739998   53.894184   98.982155
H   85.782867   33.639385   23.842045
H   20.781874   20.935659    8.038229
H   53.917713   91.626251    1.155377
H    6.511958   76.195251   96.331802
H   48.218830   86.204460   82.820404
H   61.493187    8.380819   61.776974
H   46.797691    3.247148    8.855379
H   93.184464   90.849266    1.986987
H   11.565170   15.638102   90.137192
H   38.178532   52.148430   23.764122
H   38.268383   76.898720   58.284836
H   84.267960   56.873653   68.405518
H   45.887886   25.155132   70.775253
H   96.240868   15.374813   63.219296
H   44.556038    0.270653   39.188423
H   96.548759   48.930630   95.487633
H   61.625984   96.300262   75.912613
H   66.443520   76.333115   15.664934
H   82.684929   51.575882   51.319946
H   64.251328   91.577751   39.318348
H   98.756195   33.986664   73.245087
H   92.513130   21.727327   75.207230
H   69.236557   66.940155   22.939533
H   62.086044   91.119583   21.377621
H   90.769142    7.455945    1.176696
H   75.864128   26.104454   55.996159
H   29.669842   92.130417   32.935493
H   48.747993    0.971029   76.153366
H   69.738716   87.866661   80.777161
H   95.577003   48.265846   75.124329
H   59.669907   51.479805   71.429230
H   43.724747   84.582649   81.258713
H   75.915810   48.041431   31.416672
H   33.714020   56.537083   58.159126
H   38.578663   66.165962   82.148445
H   34.297966    8.030332   86.592232
H   64.321342   52.819771   65.778030
H   64.663330   70.779266    5.372551
H   56.816978   94.539986   43.623039
H   28.699280   54.397324   65.893211
H   78.846039   43.457150   92.864555
H   25.751196   94.253723   70.874199
H   58.209225   69.988281   47.486511
H   55.298008   92.969986   32.138744
H   99.914452   12.731449   85.526695
H   23.417856   12.872090   63.324783
H   33.875618   67.374603   69.997528
H   78.671631   44.795956   69.782860
H   64.660172   76.208672   86.806442
H   53.311146   28.461098   21.695822
H   88.994156   99.808868   83.653915
H   57.950653   36.093994   97.851135
H   58.975422   63.649231   69.829193
H   19.611492   20.408163   31.117092
H   87.215370   12.290415   37.019577
H   30.031796   35.191299   49.336636
H   54.061417   39.427479   14.845481
H   20.717756   48.180099   59.508461
H   66.100647   89.301888   57.638832
H   24.078606   54.181988   69.143234
H    1.016611   26.508423   35.650311
H   49.792553    6.603491   84.648987
H   69.602844   11.710793   35.933189
H   28.509792   46.466824   59.027309
H   47.546200   55.496452   76.045914
H   64.933563   62.315746   86.094978
H   47.687469   91.192505   75.204224
H   16.683372   50.422070   23.780010
H   30.168251   68.884651    8.283367
H    6.258920    9.688187   71.414291
H   62.533173    9.500200   63.158531
H   61.992794   59.936562   93.593552
H   72.088417    3.501446   29.838430
H   29.534645   30.729824   88.271065
H   42.106483   89.628044   16.190834
H   62.609249   26.165901   95.989433
H   92.131126   66.170723   76.291580
H    9.957971   40.535645   86.511696
H   49.145294   95.771835   10.587696
H   65.871437   88.869698   43.407215
H   91.819649   63.452148   72.383545
H   58.905933   55.493595   72.159134
H   72.230827   14.117977   75.652351
H   43.463848   98.816086   18.115641
H   15.450901   29.680899   69.512741
H   26.176361   83.924812   43.611488
H   67.358612   31.430887   20.144751
H   76.575699   11.637340   22.565424
H   12.857953   99.493080   20.714277
H   14.058606   87.250275   32.555462
H    5.099009   13.041714   55.163353
H    2.678048   17.680109   90.649406
