100
TIME:    5.663, STEP:  5663
H   34.356361    2.696227   93.961380
H   44.076332   11.732562   35.175564
H   77.102249   81.323135   56.871243
H   82.427124   99.333710   29.754185
H   44.448074   26.671846   12.158436
H   40.204243   95.072945   39.572208
H   56.171146   43.731068   33.307056
H   74.785660   78.523026   88.235878
H   14.420586   41.819092   43.621529
H   20.085505   97.695656   29.446707
H   73.496567   94.105835   94.260841
H   39.700684    7.547552   89.830910
H   82.699173   19.137730   62.317558
H   74.683067   87.620918   88.196602
H   49.381889   64.185471   78.557861
H   73.826706   16.422501   62.962616
H   68.722328   56.533047   88.913574
H   22.167295   19.276257    3.217474
H   33.471241   15.922168   61.709179
H   39.945251   85.553017    1.896015
H   28.226265   92.447388    3.541180
H    5.297668   51.601700   37.021500
H   10.133981   48.565407   70.325134
H   92.883522    4.574191   86.489685
H   27.042309   37.055817   78.362404
H   20.731173   59.248299   57.893913
H   73.752762    7.071911   12.328255
H   54.713619   20.769386   53.963272
H   34.307716   62.883610   89.479675
H   18.137951   50.680565   33.580368
H   38.930038   29.867992   61.340401
H   23.322361   96.050980   75.011787
H   69.252312   54.150108    7.964718
H   17.376633   54.742546   33.177101
H   40.005157   30.840776   69.564255
H   64.912491   28.979488    1.622139
H   22.954727   97.143188   54.687542
H   29.930416   55.320225   22.064098
H    6.033964   58.029472   95.525871
H   29.802465   82.032417   83.587791
H   48.225433   50.492744   75.763527
H   22.967342   63.810959   69.064110
H   60.019573   97.459274   10.518931
H   17.742619    7.696232   34.434273
H   65.431358    8.460176   40.708965
H    5.025224   70.929886    6.167742
H   85.976852   32.811844   79.825081
H   56.541851   53.697037   18.972235
H   30.565193   63.439018   18.574139
H   44.647938   16.925833   87.586716
H   43.112743   22.917547   13.124187
H   80.343987   38.255283    2.295420
H   26.339474   54.844727   73.971794
H   45.548248   14.804156   81.709373
H   89.898125   54.883877   48.515179
H    0.648985    6.576797   99.844910
H   55.260307   26.143501   94.585777
H    4.377231   42.087456   67.689438
H   36.905289   78.044563   76.732185
H   85.319214   63.066341    2.541389
H   16.926842   15.216646   72.863121
H   97.926979   75.231674   39.121857
H   58.522587   20.850130   45.141541
H   31.907253   72.611893   73.391129
H   57.098480    8.549351   22.939756
H   53.458885   60.748558   81.024086
H   33.215881   44.146412   40.472488
H   89.183495   41.410801   36.926746
H   39.145741   42.879265    5.058194
H   45.116447   32.974228   89.808472
H   42.207466   10.090181   94.215858
H    7.027353   63.581009   71.241135
H   37.753616   38.190636   16.547638
H    5.546604   91.007835   66.677299
H   35.207432   36.714085   30.692333
H   59.538071   70.519096   14.881786
H   81.118980   35.714741   91.201164
H   98.038361   80.431252   27.185823
H   33.074291   36.884708   80.865395
H   21.805649    0.528679   33.048645
H   21.688005   87.867996   18.453337
H   66.234528   81.196213   13.230760
H   76.072853    1.824605   69.259888
H   39.755135   96.753952   46.188992
H   76.587868   94.660362   98.788162
H   20.956066   17.064754   35.039230
H   45.373695   91.606544   93.577133
H   47.105614   51.915226   36.861244
H   73.206406   78.865639   81.874763
H   65.654358   76.285446   26.656496
H   55.775963   79.216660   53.053997
H   97.303551   21.390982   41.428848
H   48.462631   97.436562   56.933064
H   94.575111   56.740795    8.646497
H   58.681877   42.472980   46.215214
H   61.662170   72.106049   74.947540
H   13.100258   92.668816   11.504977
H   27.346430   66.661987   65.194664
H   38.940704   61.261265   70.702232
H   90.962173   33.313244   52.206554
