100
TIME:    0.264, STEP:   264
H   99.469643   97.811256   98.904312
H   93.926552   19.058395   94.653595
H   84.300323   92.897362   20.240074
H   81.520920   21.773581   25.692175
H   92.806427   93.918289   58.547020
H   23.922554    0.926319    4.889887
H   39.134197   79.164574   11.097798
H   99.136414   11.441896   83.954536
H   47.138374   60.910873   83.469490
H   67.625893   20.177147   18.027140
H   75.698395   76.865189   14.320000
H   45.765301   36.923500   74.137352
H   26.469692   45.735092   98.889885
H   42.010212    4.263294   77.331001
H   83.713722   46.440819   38.082165
H   90.908752   88.645882   11.125385
H    2.841274   99.455849   97.391655
H    6.786215   81.862244   90.393845
H   49.375198   89.427856   77.270569
H   85.503151   99.996582   34.198631
H   48.610413   29.935371   50.076523
H   87.661781   44.448387   96.776009
H   82.219246   92.475121   24.797211
H   94.513046   39.848026   87.467850
H   20.141108   65.237221   38.507889
H   45.447926   19.743690   64.427727
H   39.313725   31.502460    5.204989
H   10.265694   68.761810   75.501846
H   16.911758   73.044182   44.692413
H   11.116805   84.305710    4.376215
H   26.486757   45.716621   88.521233
H   82.426544   45.216637   74.824287
H   88.953552   49.166481   21.580160
H   89.256569   49.528625   60.629295
H   74.209694   38.963882   40.803810
H   95.508537    5.224115   19.735945
H    5.120426   94.867043   29.267345
H   53.077347   54.122280   41.070721
H   38.851948   74.872368   16.823151
H   38.327648   87.468422   58.806007
H   17.200611   65.237099   48.559254
H    7.894363   23.705530   15.203177
H   13.515372   65.083069   20.542416
H   62.501205   17.196020    6.544456
H   33.755669   21.475719   78.698547
H   74.579735   68.167046   84.353569
H   38.867664   39.982487   29.879095
H   56.253513   98.100754   84.912781
H   72.745110   10.585323   33.942673
H   31.426710   34.767643   65.199112
H   43.524479   44.156334   56.200459
H   17.962793   39.241676   56.731956
H   14.355469   23.539490   87.537453
H   70.572937    2.894621   43.465534
H   19.742149   81.648743    2.646318
H   93.896561   12.254566   83.639618
H   12.988932   81.929237   81.095985
H    6.401305   51.955162    6.754736
H   11.098694   49.923523   91.216019
H   41.596878   48.080391   56.100792
H   76.353897   66.291977   93.812653
H   89.541260   25.488083   83.409821
H   92.139656   89.150398   15.446731
H   61.168884   43.230576   19.972662
H   42.800850   39.758961   20.146650
H   85.127510   29.148914   61.795605
H   66.387413   57.487919   79.807968
H   62.129494   32.636215   78.823326
H   70.061363   30.816963   43.675396
H   35.734581   61.423584    1.175613
H   13.649130   77.441887   58.981144
H   52.198444   42.763924   75.951118
H   89.778122    5.249195   54.980152
H   24.380112   32.672970   87.518303
H   74.899338   29.019339   21.411015
H   31.899519   24.492109   78.165237
H   90.924377    3.662369   95.704285
H   44.383530   33.458187   29.019718
H   74.207848   52.727917   20.632149
H   86.578415   94.576057   98.177429
H   16.048061   32.012859   95.767639
H   61.132191   45.951675   64.705261
H   34.500164   11.663821   55.044525
H   68.331635   34.752415   39.316689
H   39.475479   32.370560   22.160503
H   45.217930   18.750414   60.116405
H   84.786674   84.157967   36.131710
H   60.205048   84.157631   92.994514
H   61.161812   79.473259   26.040916
H   42.994484   98.424362   33.649426
H   34.826542   87.686737   39.036938
H   97.819954   15.361555   38.554558
H    2.223184   35.541534   39.338799
H   72.744972   29.245764   44.618488
H   52.027561   26.081982   22.153240
H   15.726944   85.306389   53.813026
H   41.646996   82.830894   22.006111
H    7.834522   18.485474   51.811371
H   96.135857   37.988293   22.938007
H   55.636791   71.922661   72.259018
