100
TIME:    3.208, STEP:  3208
H    0.378797   27.831291   96.209000
H   12.033701   78.678116   80.359695
H   34.897377    4.700808   85.682869
H   82.015060    0.479593   64.323425
H   66.437286   29.892849   78.722916
H   78.275642   97.732628   96.444572
H   84.838799   77.957634   41.322716
H   67.743820   66.133682   13.645500
H   74.769173   77.857224   98.154152
H   87.175285   62.445488   33.311951
H    1.854686   95.323563   30.739004
H   33.400467   84.491257   64.580070
H   39.201454   67.618896    6.280280
H   96.239952   95.187904    1.369304
H   19.522095   83.475998   96.566017
H   72.537567   31.145782   66.749367
H   66.138863   94.155548   65.425247
H   69.696495   38.695717   88.327820
H   95.233269   12.931727   32.372074
H    6.091644   37.689983   34.748161
H   73.909454   36.851036   70.170105
H   69.934433   48.342651   46.087433
H   42.912605   68.531761   40.566452
H   20.983582   75.156616   68.820595
H   14.847953   31.748955   60.231606
H   31.949408   32.022274   88.485359
H   85.449600    9.123500   63.625751
H   61.859165    6.178284   72.812675
H   80.925430   40.146561    5.528966
H   24.002003   11.442077   38.414978
H   42.310467    9.723477   55.572197
H   68.312294   63.874817    2.283444
H   96.324188   33.769234   86.798927
H   13.646583   79.728737   36.602310
H    1.028136   16.420105   20.073601
H   51.477535   36.490032    9.612504
H   87.487892   87.051254   61.243160
H   31.399078    0.238873   48.820377
H    9.660748   11.520800   33.432816
H   61.034801   11.860723   90.433022
H   16.007772   66.255508   17.924788
H   43.304405   55.836594   53.515518
H   38.873219   82.737366   33.191113
H   74.506744   66.538177   94.395348
H   78.384865    5.321394   30.628534
H   36.700008   24.104481   96.194557
H   66.797165   99.298981   56.256386
H   56.410740   28.412645   67.070793
H   58.800293   66.761955   16.505136
H   93.161217   79.569405   59.291561
H   43.299870   59.931885   87.241470
H   61.035358   66.061707   63.464130
H   75.422401   40.609802   16.553246
H    2.406155   54.867836   73.376862
H   85.367264   39.725197   27.633005
H   97.580154    9.160269   83.418915
H   99.626045   96.980980   61.094948
H   87.182121   73.931519   30.925941
H   43.284424   74.314407   65.204521
H   47.323174   74.366150   72.367439
H   62.063850   29.385632   64.273636
H   85.056419   98.082474   50.203850
H   91.851372   88.374687   13.488297
H   63.328407   59.245224   40.044300
H   59.655254    4.625837   94.315819
H    4.272744   82.793709   35.865799
H   30.185101   59.269230   21.944803
H   58.767281    1.005489   19.563551
H   16.787590   19.279900   59.033703
H   95.380188    9.495144   94.977997
H   20.163868   77.127296   23.666679
H    9.453317   45.057922   91.496429
H   97.823380   59.623837   79.495110
H   59.594105   46.371300   12.547569
H   16.842577   33.211544   44.586460
H    1.494254   13.174963   80.071381
H   58.221355   48.499016   47.784641
H   82.697998   40.957447   91.605209
H   15.348941   44.095821   53.474701
H   42.199043   34.238964   44.549088
H   73.656601   62.469891   71.723495
H   82.024338   65.178238   18.526583
H   20.768904   60.804199   35.445957
H   70.854477   86.674286   70.414856
H   96.125778   48.223019   36.772728
H   77.460510   26.888798   64.556458
H   81.409782   70.105186   76.513092
H    7.595827   48.454071   62.380348
H   22.258572   15.556128    1.954133
H   82.708435   77.290359   38.895798
H   55.307190   46.653904    1.208838
H   15.651794   36.765358   94.651787
H   91.093719   23.772627   67.084007
H   57.293972    7.821130   43.117348
H    1.124631   62.377544   89.803947
H   58.889236   69.050911    1.751396
H    7.966676   51.781063   52.694695
H   18.642431   43.551880    4.705624
H   55.891685   50.678722   76.333611
H   38.471806   96.312386   88.702774
