100
TIME:    4.556, STEP:  4556
H    9.218967    4.212975   94.974869
H   74.649910   51.747818   65.377563
H   58.068184    1.681400   69.865425
H   82.241318   44.943657   90.432991
H   54.363373   37.940994   42.172073
H   57.374432   96.272240   29.941847
H   14.190828   68.981674   46.738140
H   61.793678   82.753693   89.876900
H   41.632759   48.252609   13.302563
H   50.336479   81.800774   86.097595
H   76.467010   49.563007    0.892888
H   81.951134   52.059319   68.628029
H   53.339310   86.079475   72.314941
H   29.494236   91.032997    3.952777
H   35.919380   63.067078   31.769051
H   18.337357   13.244743   54.853455
H   57.740730   83.314560   88.139000
H   98.495583   73.137169   41.591747
H   16.229622   69.484772    3.391267
H   69.768791    9.064310   26.526255
H   93.917229    2.652446   33.586678
H   99.168503   50.132141   31.292770
H   24.914864   57.568565    1.996795
H   95.739700   91.323730   68.705765
H   66.635406   24.845825   70.186928
H   25.777502   91.968323   61.991810
H   69.210777   53.090847   90.365395
H   48.119389   69.098389   17.367884
H   10.236852   62.447903   41.807045
H   75.690720   78.078545   45.577217
H   95.361732   30.601154   48.922722
H   53.425793   26.634918   77.492317
H   91.275612   35.143181    8.237416
H   70.603271   56.192505   79.814476
H   67.521378   14.521591    2.158111
H   68.682968   42.274403    5.104144
H   16.779028   37.686020   67.460312
H   75.683144   75.576729   43.945232
H   52.763836   82.150505    2.802366
H   34.069405   85.665886   96.490662
H   23.881145   12.512250   49.683086
H   22.153816   16.333246   16.846159
H   50.484333   90.820923   30.558855
H   88.427933   89.122772   26.196615
H   61.455418   52.133461   45.980122
H   19.309048   49.815540    1.668481
H   77.328415   72.608482   69.200340
H   56.482731   42.295288   50.477379
H   98.208847   55.120907   62.735626
H   21.430599    0.076584   65.010353
H   43.197025   29.791454    1.454285
H   26.545053   40.976620   74.969666
H    3.376470   48.425964   38.263714
H   71.183434   32.869453   32.859215
H   78.039307   57.865528   39.098179
H   99.266800    7.741253   37.529816
H   85.082382   58.085289   89.300880
H   86.806534   46.629875   96.202255
H   49.598007   31.271816   61.717644
H   58.368572   77.977783   34.027107
H   47.096924   66.695213   59.173180
H   37.213280   85.535477   89.209290
H   83.367592   96.389450   21.051872
H   55.892815   66.581635    3.442036
H   13.157105   96.963531   19.849619
H   21.462677   15.780403   15.569592
H   22.032255    5.876381   87.025436
H   65.651665   78.099503   84.005745
H   83.972672   22.421219   74.489014
H   22.691256   77.296875   92.139496
H   77.358635   85.409454    7.494463
H   98.304596    0.319989   90.190788
H    9.931402   92.948830   44.933769
H   29.913784   61.068150   32.451378
H   81.833870   35.134731   46.774014
H   33.364723   99.569054   89.368576
H   80.610580   31.662251   71.623940
H   46.029491   52.815624   66.052254
H   79.989113   40.136318   68.517723
H   76.090302   60.825718   28.417656
H    0.025870   76.415573   52.290112
H   83.167488   73.981705    5.807276
H    6.050713   83.311707   63.835346
H   63.594131    2.025508   47.296211
H   30.490465   63.905876    6.099332
H   46.436863   76.405190   58.165695
H   71.439659   72.094604   40.791260
H   29.290819   40.529732   48.362679
H   50.233994   40.500969   90.928596
H   63.528019   21.828926   87.083252
H   10.473014   19.443123   29.676188
H   15.395560   38.134888   20.339220
H   77.501991   64.221321   71.327011
H   87.582382   89.587845   34.006573
H   77.819923   41.631264   20.778507
H   70.228500   15.820288   32.125786
H    0.968873   29.139965   75.169113
H   23.589239   55.029297   83.130562
H   91.675903   56.489422   63.425323
H   22.202089   61.716267   58.847111
