100
TIME:    4.217, STEP:  4217
H   32.143219   35.300873   95.285233
H   84.012550   33.376869   44.001427
H   52.241104   77.292061   73.843254
H   82.184418   58.910027    9.014270
H   57.399765   10.768649   51.364014
H   62.632511   96.639503   96.369377
H   31.957794   46.090321   20.227900
H   88.438408   53.425251   21.002628
H   49.966026   80.845978   34.641605
H   59.600838   76.933235   72.824371
H    7.999954   35.922520   33.546963
H   94.888130   35.066902   92.758812
H   74.971664    6.579411    5.999813
H   46.279549   92.077888   78.156006
H   31.796650   93.348236   48.065716
H   31.968792   42.894890   82.993103
H   85.001015   60.891140   57.278496
H   91.251060   89.627815   53.345493
H   10.949558   55.263351   85.530289
H   78.903831   16.263456    3.445599
H   14.033951   36.401875   42.786377
H   66.668243   49.682114   60.161774
H   29.441002   60.325630   11.696309
H   27.236534   87.257965   93.881439
H   78.760284   51.731087   67.683327
H   27.322855    1.988370   93.871178
H   98.441872   67.183365   83.640846
H   76.723145   53.275009    6.161732
H    2.865091   31.690865   57.832161
H   62.691650   86.468712   18.627937
H   82.021263    0.202648   75.743324
H   32.021038   36.000145    8.875206
H   67.398293   59.946419   77.697617
H   56.279984   87.259918   94.096382
H   75.947754   40.147331   81.514008
H   39.213932   15.722775    6.170696
H   84.263992   50.100571   40.748341
H   89.696068   81.778831   20.023945
H   67.073639   89.537163   35.653267
H   65.998238   17.401611   69.820068
H   47.049347    0.881205   41.696392
H   52.621201    1.118125    0.920118
H   47.564327   88.788040    6.072683
H   10.075300   83.443115   93.050781
H   90.862160   65.507843   16.970785
H   23.682590   43.349628    0.290373
H   74.679977   54.172874   65.946693
H   56.464626   38.803696   29.501961
H   88.297897   83.197662   76.257385
H   14.320682   94.919334   88.722145
H   43.222889   62.519402   97.880188
H   10.071203   72.433884   97.222748
H   96.345726   46.460327   57.953709
H   79.035637   38.401688   17.900902
H    5.030547   28.155954   36.214382
H   98.842636    8.097937   49.070175
H   63.589741   67.866920   57.059258
H   12.049167   78.643898    4.934265
H   22.862753   16.947235   87.741875
H   80.739975   51.921543   43.669075
H   25.712481   82.461693   85.605354
H   49.245049   88.690842    4.547072
H   60.353710   19.522549   44.298119
H   32.612946   64.734970   12.646908
H   99.701393   24.038837   88.279640
H   42.288063   32.633156   95.525757
H   49.230942   94.155792   70.658920
H   89.068611   58.712112   67.799583
H   67.078537   46.779602   95.748932
H   15.823164   60.246986   92.853333
H   88.123085    8.474897   11.561481
H   26.256508   11.571111   65.372032
H   32.035767    9.717319   53.626541
H   37.378033   82.519814   52.593987
H   65.488045   34.651081   21.075342
H   25.349581   77.843590   12.179361
H   49.831650   61.045925   65.628746
H   30.102657   74.982079   47.329842
H   63.731270   41.132069   64.736458
H   92.715454   79.287636   57.622887
H   93.394424   72.908463   32.028530
H   57.732536   71.767776   34.155029
H   84.606422   77.647552   31.548443
H   40.272881   73.016792   78.258774
H   46.996765   85.108910   38.961487
H   54.239925   63.954422   34.624603
H   48.798622   96.742661   24.626478
H   23.834883   67.671043   51.887894
H   43.199081   59.376259   93.701180
H   93.498856   35.777191   74.963547
H   96.599579    1.138223   22.517130
H   90.311722   12.641176   13.879774
H   55.771355   54.049095   45.111614
H   54.817585   69.026245   11.149687
H   83.680626   71.997093   12.989419
H   42.228516   29.206028   49.635475
H   27.876480    9.685540   94.665131
H   22.345198   52.142914   88.556755
H    7.825008   55.028126   91.818489
H    1.146143   70.416115   91.502960
