100
TIME:    9.667, STEP:  9667
H   63.582184   35.511452   90.295609
H   33.496445   28.704540   87.640312
H   45.937710   69.386665    9.863920
H   83.099182   34.371025   10.280770
H    8.574636   47.609665    3.594540
H   78.112671   90.735115   36.101082
H   46.322010   14.099650   46.425167
H   60.079163   24.920467   20.601517
H   15.994560   56.849335   91.584084
H   10.717310   55.188801   86.222878
H    1.054173   55.213760    8.572897
H   86.878410    8.247271    4.821841
H   27.317261   76.857460   64.426941
H   76.429657   75.279488   92.902489
H   98.021370    6.528725   86.014183
H   12.833523   66.217758   30.595699
H   46.744423   21.368126   53.413498
H    7.790183   24.442513   64.418533
H   95.835495   83.895798   72.658752
H   32.069729    0.524285   74.506920
H   90.622742   93.837288   94.863968
H   89.165054   56.917068   96.043961
H   56.673820   16.008642   55.766571
H   20.853832   52.473602   89.118774
H   83.837509   19.518730    7.929058
H    2.024148   41.120346   81.174461
H   28.482403   40.631344   91.772812
H   16.868540    7.662588   86.311943
H   21.370922   26.157690    0.208527
H   71.668861   51.581314   51.887154
H   96.512016   88.914429   44.556824
H   76.137650   85.422623    4.341461
H   51.288704   61.198593   68.676659
H   86.555481   87.799889   64.496025
H   40.370934   27.742409   13.200381
H   12.973249   42.594944   89.035500
H    6.990440   50.509041   70.187149
H   64.434700   82.044395    4.615401
H   37.025112   70.789696    7.508564
H   52.669559    7.190122   98.613724
H   74.580627   87.881027   70.094810
H   85.531532   79.513718   73.474113
H   94.481354   21.478889   99.730980
H   62.081104   74.909523   25.921406
H   18.109015   50.485050   83.341537
H   53.345894   47.294048   22.434603
H   17.270313   50.565678   18.264986
H   56.777645   94.936966   66.716354
H   47.604591   31.829296   58.855309
H   28.693411   77.878319    7.615766
H   45.109226   36.528160   51.845001
H   74.945129   66.714142   39.457863
H    9.385567   78.061279   41.428398
H   52.822929   49.480331   58.394051
H   71.093880    5.774038   82.559647
H    5.635996    2.364978   63.539291
H    9.098608   10.609255   75.399559
H    6.231479   63.958244   64.555443
H   52.695950   47.236565   69.350563
H   21.097027   70.826767   88.658119
H   69.506195   29.011354   60.686970
H   55.817192   37.962997   57.955833
H   30.359837   47.635040   70.580124
H    6.855025   94.423233   64.683868
H   16.021992   88.755501   95.813866
H    7.490805   61.698387   17.773340
H   11.966805   82.574738   33.785656
H   12.600064   70.403389   28.341110
H   38.704437   55.177368   53.936489
H   26.356720   34.192509   81.340073
H   15.053429   37.654568   46.194252
H   77.212669   30.618553   64.631622
H   76.685776   40.140545   13.886143
H   17.402790   37.595814   28.772799
H   28.139307   42.549389   34.259937
H   54.193954   27.136402   45.462479
H   44.752876   89.096603   62.191902
H   86.145271   18.627571   48.323174
H   25.081572   25.123692   25.541475
H   25.446426   82.411659   88.100624
H    0.063250   29.291910   57.766853
H   66.698631    7.169602   78.262077
H   29.332117   68.784706   50.579876
H   15.223676   39.385696   80.486076
H   81.629211   44.190575   10.646991
H   28.804722   64.141457   13.089158
H   12.791994    0.482194   84.502983
H   11.500019   31.514479   95.349747
H   56.302738   55.928993   49.127205
H   11.645877   11.548515   69.786575
H   19.636801   95.420685   37.611473
H   93.559006   22.530142   17.722162
H    5.126917   17.572309   66.568535
H   79.269814   99.485641   82.118889
H   89.453247   83.818672   38.222084
H   92.376129   13.993221   68.135757
H   95.281670   22.447441   81.229858
H   19.617762   64.781876   84.810326
H   48.199364   78.546638   35.325184
H   39.665604   30.564617   66.488052
