100
TIME:    0.351, STEP:   351
H   93.586098   89.832893   98.824661
H   91.506493   23.775387    0.141537
H   85.795105   99.156593   19.218552
H   81.535522   18.188959   20.923410
H   92.027176    0.891721   56.188026
H   22.573467    0.831630   13.505955
H   34.574848   85.038826   17.901430
H   92.298386   18.968342   75.966881
H   44.999748   52.546204   77.993492
H   65.248314   21.426006   21.434206
H   67.605865   80.365845    5.939732
H   42.444523   41.284386   67.944496
H   20.935616   40.471497   90.242455
H   37.702427    3.995053   83.951317
H   84.771751   38.670212   33.899830
H   87.410751   81.036568    3.903753
H   95.846687    5.209223    5.312808
H    8.645288   77.631454   87.377731
H   50.729927   93.077194   81.854477
H   83.148140   98.172577   40.133949
H   43.447708   21.274002   47.715538
H   96.003883   44.563217   89.368477
H   81.057671   91.767555   22.307789
H   86.429810   40.891453   81.006836
H   17.029745   58.337582   39.150406
H   45.049557   17.150841   56.273621
H   31.811285   27.885979    6.931339
H    2.925144   72.822678   78.377243
H   18.803467   80.937584   40.579773
H   14.452683   82.152481   11.292278
H   29.909090   53.518425   81.636742
H   87.919800   42.813171   66.770256
H   95.081360   42.801048   29.417807
H   92.932457   41.555573   56.964027
H   72.047173   32.387375   46.101257
H    3.072833   12.058493   19.436590
H   13.464822   91.681007   36.122631
H   49.481773   52.529926   47.209812
H   34.940426   73.015175    8.484517
H   30.133488   79.324120   65.651176
H   11.255337   68.222679   50.609600
H    0.075282   27.610415   19.290564
H   14.264588   65.604782   26.826538
H   56.945557   18.653963   15.050838
H   26.209156   18.043098   86.143250
H   73.468605   69.802544   84.694740
H   39.786304   44.675915   30.622503
H   56.258160   98.996826   90.295853
H   75.288628    3.380188   30.472033
H   33.251377   36.091839   59.114319
H   43.517841   35.757149   57.117771
H   22.190596   31.168430   51.020325
H   16.160074   24.043945   82.484932
H   68.559097    1.475010   47.304707
H   12.815918   89.275314    3.384541
H   94.005417   12.163059   80.677933
H   18.504181   79.418907   89.370384
H   99.922791   43.739174    4.513725
H   17.959953   53.599411   84.537292
H   35.856041   54.767746   53.626305
H   81.841843   62.246002   87.029053
H   86.453461   24.678299   79.473740
H   98.040459   83.217735    9.478059
H   67.143013   43.703835   17.610350
H   46.254379   32.810085   28.248804
H   79.782936   24.823872   66.939720
H   59.407341   60.495403   84.008224
H   56.119835   37.611740   82.982430
H   74.397026   24.565697   38.218647
H   37.496857   65.799461    0.992665
H   10.886240   71.522499   57.937717
H   45.025219   39.876579   82.320534
H   84.105652    0.946056   52.749264
H   22.465172   27.167395   82.347633
H   79.094284   29.143129   28.006439
H   33.956501   30.068003   72.310898
H   98.823090   96.121941   97.244202
H   48.470947   27.769371   33.824657
H   78.377571   52.473698   21.602230
H   82.311783   89.838158   90.682281
H   17.750599   32.912914    0.967478
H   67.659874   46.519852   57.429878
H   40.004704   13.115956   63.330872
H   74.316071   42.197117   31.370186
H   35.239380   26.928413   13.726848
H   43.214802   21.946651   66.157753
H   90.597206   77.832359   40.280193
H   61.605576   77.192162   92.090477
H   62.967232   74.629158   25.329037
H   35.302864   94.844055   36.759792
H   38.386936   92.384811   40.874218
H    4.257148   21.904543   40.211960
H    7.805065   38.148109   46.069298
H   81.153450   34.523125   50.484112
H   50.523487   18.288807   24.152145
H   22.912781   81.870781   49.319389
H   34.741264   87.823677   17.002708
H    8.153913   19.226227   50.419472
H   91.991356   38.363316   15.650616
H   61.039776   69.688454   63.879745
