100
TIME:    0.361, STEP:   361
H   92.909828   88.915840   98.815506
H   91.228325   24.317570    0.772319
H   85.966919   99.876045   19.101135
H   81.537201   17.776934   20.375277
H   91.937607    1.693263   55.916878
H   22.418400    0.820746   14.496307
H   34.050785   85.714027   18.683443
H   91.512405   19.833439   75.048759
H   44.753929   51.584747   77.364067
H   64.975029   21.569553   21.825823
H   66.675690   80.768219    4.976482
H   42.062824   41.785637   67.232674
H   20.299515   39.866486   89.248497
H   37.207279    3.964221   84.712273
H   84.893364   37.777039   33.419102
H   87.008682   80.161934    3.073684
H   95.042702    5.870529    6.223281
H    8.858968   77.145157   87.031052
H   50.885643   93.496658   82.381363
H   82.877449   97.962921   40.816170
H   42.854294   20.278442   47.444160
H   96.962746   44.576416   88.517036
H   80.924156   91.686226   22.021648
H   85.500702   41.011387   80.264191
H   16.672117   57.544506   39.224258
H   45.003704   16.852875   55.336349
H   30.948973   27.470291    7.129770
H    2.081399   73.289444   78.707748
H   19.020905   81.844872   40.107056
H   14.836118   81.904984   12.087223
H   30.302462   54.415184   80.845421
H   88.551208   42.536911   65.844505
H   95.785706   42.069389   30.318686
H   93.354973   40.639130   56.542732
H   71.798607   31.631454   46.710159
H    3.942312   12.844053   19.402182
H   14.423951   91.314796   36.910595
H   49.068489   52.346897   47.915455
H   34.490826   72.801704    7.526051
H   29.191601   78.387993   66.437920
H   10.571972   68.565849   50.845272
H   99.176537   28.059252   19.760382
H   14.350705   65.664749   27.548851
H   56.306976   18.821543   16.028584
H   25.341732   17.648544   86.998962
H   73.340889   69.990532   84.733955
H   39.891895   45.215389   30.707952
H   56.258694   99.099823   90.914597
H   75.580986    2.552012   30.073130
H   33.461109   36.244045   58.414932
H   43.517078   34.791725   57.223209
H   22.676550   30.240505   50.363815
H   16.367517   24.101929   81.904182
H   68.327621    1.311837   47.745991
H   12.019810   90.151932    3.469394
H   94.017929   12.152550   80.337509
H   19.138107   79.130363   90.321465
H   99.178162   42.794807    4.256138
H   18.748604   54.021927   83.769623
H   35.196175   55.536407   53.341881
H   82.472641   61.780991   86.249329
H   86.098541   24.585220   79.021317
H   98.718712   82.535820    8.792005
H   67.829659   43.758232   17.338820
H   46.651337   32.011364   29.180086
H   79.168617   24.326740   67.530998
H   58.605034   60.841091   84.491013
H   55.429070   38.183640   83.460487
H   74.895378   23.847160   37.591434
H   37.699417   66.302391    0.971636
H   10.568666   70.842110   57.817783
H   44.200710   39.544701   83.052650
H   83.453644    0.451443   52.492840
H   22.245064   26.534575   81.753304
H   79.576462   29.157358   28.764534
H   34.192936   30.708910   71.637985
H   99.730988   95.255241   97.421204
H   48.940765   27.115494   34.376949
H   78.856850   52.444477   21.713734
H   81.821365   89.293571   89.820770
H   17.946293   33.016369    1.565141
H   68.410149   46.585159   56.593620
H   40.637409   13.282868   64.283325
H   75.003937   43.052830   30.456795
H   34.752472   26.302879   12.757476
H   42.984623   22.313969   66.852180
H   91.265083   77.105278   40.757030
H   61.766556   76.391533   91.986565
H   63.174751   74.072365   25.247211
H   34.418770   94.432526   37.117306
H   38.796177   92.924820   41.085400
H    4.997056   22.656610   40.402466
H    8.446659   38.447716   46.842918
H   82.119942   35.129738   51.158321
H   50.350605   17.393040   24.381905
H   23.738739   81.475883   48.802879
H   33.947502   88.397560   16.427605
H    8.190629   19.311371   50.259483
H   91.514977   38.406422   14.812984
H   61.660809   69.431648   62.916611
