100
TIME:    3.006, STEP:  3006
H   14.038954   46.355766   96.393936
H   17.652962   67.726791   67.617569
H   31.425192   90.168106   88.053139
H   81.981155    8.802500   75.394958
H   68.246582   13.701657   84.200119
H   81.407234   97.951469   76.440605
H   95.426414   64.318565   25.526054
H   83.620621   48.658535   32.193043
H   79.734718   97.278641   10.869522
H   92.695641   59.545067   25.401293
H   20.644226   87.195602   50.195919
H   41.110779   74.365982   78.958885
H   52.049919   79.840118   26.357281
H    6.241702   95.810524   85.997871
H   17.064751    1.519587    6.275838
H   80.659363   48.813385   83.516945
H   82.382454   80.793884   47.036388
H   65.381310   48.518929   95.330750
H   92.086266    4.457091   21.730516
H   11.533401   41.978970   20.995050
H   85.896423   56.961342   75.653473
H   50.568497   48.074493   63.289612
H   45.609596   70.174614   46.345718
H   39.751556   72.733948   83.822029
H   22.072098   47.769081   58.740234
H   32.875675   38.040417    7.419372
H    2.867677   17.520704   59.617252
H   78.903954   96.749641   66.136467
H   76.533188   21.819780   15.077135
H   16.257015   16.441879   22.356785
H   34.359737   91.609558   71.553795
H   55.557838   69.456779   20.983559
H   82.096405   48.548744   68.601173
H    5.111377   98.240883   45.112473
H    6.049693   31.689697    7.773780
H   33.914730   20.621489   10.306787
H   68.112709   94.448715   45.326290
H   39.747421    3.935893   34.566395
H   18.187576   15.921518   53.008347
H   80.061447   30.771338   74.540810
H   29.812513   59.324512   13.165984
H   61.459007   46.770081   44.025192
H   37.133274   81.526031   18.600452
H   87.406067   63.153450   74.644127
H   95.907600   13.291002   13.342364
H   39.306072   20.251637   95.374672
H   65.219040   88.313751   54.316093
H   56.399952   26.332880   54.572166
H   52.896194   83.492546   24.562975
H   88.926170   76.496376   73.420197
H   43.315281   79.433441   85.111618
H   51.218311   84.805023   76.724144
H   71.233589   39.438538   28.285156
H    7.083508   58.164330   64.462921
H    1.450557   22.022148   25.915407
H   97.327408    9.372789   90.295471
H   86.819191    2.809702   41.883125
H    2.223578   93.007721   36.128983
H   27.353683   65.779587   80.711449
H   60.652473   58.840214   78.112801
H   49.321724   38.778866   80.024063
H   92.225792   99.962662   59.344337
H   78.138329    2.158689   27.340042
H   49.456627   58.146393   45.529209
H   51.636715   20.759468   75.504692
H   16.681679   92.835762   23.922504
H   46.391792   52.286335   12.191714
H   72.720741   89.453064    9.906783
H    6.719668   33.794334   71.702461
H   91.286926   99.335030   95.403351
H   26.578854   90.871162   26.090118
H   26.109011   51.761871   76.707672
H   10.994497   69.615898   84.673332
H   64.040276   59.155037   24.553032
H    7.103692   32.923351   29.273579
H   96.719414    0.228522   93.664215
H   39.880276   66.007706   44.212284
H   73.207672   54.166538   80.450455
H    5.662551   44.689159   51.220016
H   52.105476   45.241146   61.951614
H   69.705124   60.380108   59.650227
H   66.868790   63.859024   35.418068
H    7.988491   57.432190   16.206394
H   56.957279   69.388885   88.865356
H    5.961631   60.858807   56.354424
H   82.108582   19.468990   50.529018
H   67.918663   84.792229   66.880981
H    4.344797   64.626770   64.481270
H   18.065907   26.802595    3.606809
H    0.567174   85.600174   31.675533
H   47.040527   35.747272   96.942947
H    0.704686   21.574366   90.802025
H   78.145081   17.711332   51.463036
H   37.769299   95.568504   29.498173
H    4.617439   80.470642   85.162041
H   42.204880   77.027840   12.185284
H   24.000095   40.188625   64.311790
H   17.901144   41.831970    7.937775
H   65.514549   49.807980   93.252220
H   25.925402    1.496377    8.161658
