100
TIME:    3.683, STEP:  3683
H   68.256012   84.271515   95.774124
H   98.820168    4.430378   10.322329
H   43.062164   38.873329   80.109215
H   82.094788   80.910149   38.285297
H   62.182755   67.966194   65.843353
H   70.911751   97.218025   43.486023
H   59.942768   10.030659   78.468330
H   30.409760    7.228883   70.033882
H   63.092766   32.188049   68.256462
H   74.194252   69.265785   51.913750
H   57.671341   14.435808   84.984093
H   15.269783    8.300383   30.768568
H    8.987309   38.880875   59.068001
H   72.720436   93.723824   37.518314
H   25.300503   41.046646   73.735054
H   53.439285   89.600334   27.320440
H   27.942299   25.572796    8.666372
H   79.843590   15.596564   71.860535
H    2.632619   32.859894   57.395535
H   93.293541   27.603704   67.088402
H   45.722275   89.562805   57.277939
H   15.473145   48.973221    5.636791
H   36.570671   64.668617   26.975922
H   76.850883   80.853485   33.541813
H   97.859650   94.078430   63.739601
H   29.769594   17.868891   43.962990
H   44.489849   89.379044   73.048195
H   21.781301   28.349686   88.511681
H   91.253723   83.242722   83.075264
H   42.215240   99.685081   76.176666
H   61.006489   52.316723   17.991707
H   98.304207   50.752449   58.310295
H   29.782648   99.017006   29.590681
H   33.717636   36.197701   16.592186
H   89.221161   80.513481   48.996445
H   92.782417   73.805023    7.973748
H   33.046913   69.656235   98.671440
H   11.767879   91.548515   82.340385
H   89.611542    1.172575   87.402443
H   16.296349   67.393982   27.804674
H   83.545105   82.556091   29.115583
H    0.614064   77.154129   75.831879
H   42.964672   85.585800   67.499535
H   44.174179   74.496399   40.838112
H   37.182774   86.579071   71.274963
H   30.571888   33.164387   98.122505
H   70.508102   25.132233   60.818954
H   56.436108   33.303665   96.461128
H   72.685959   27.423592   97.556763
H    3.120990   86.795586   26.070698
H   43.263630   14.073555   92.249786
H   84.119995   21.984032   32.279934
H   85.272331   43.364014   88.966530
H   91.404594   47.116180   94.337860
H   47.547592   81.355164   31.671911
H   98.174484    8.660162   67.248795
H   29.738070   83.275154    6.271372
H   51.812248   29.073994   18.689632
H   80.746941   94.383911   28.736870
H   15.979522   10.875021   58.857307
H   92.026772    7.296489   27.240337
H   68.197746   93.661240   28.710129
H   24.098768   55.961967   80.916100
H   95.944145   61.829109   27.146618
H   78.507942   66.689919   38.551212
H   75.092690   59.179970   63.951508
H   92.074142   75.691986   44.878033
H   25.955925   28.172430   42.271297
H   40.462936   85.149445   29.241108
H    5.004400   33.386467   93.977783
H    5.079781   44.808800   17.967999
H   70.286118   29.293686   26.273365
H   66.852997   36.129688   67.318596
H   49.135876   16.311478   84.323051
H   39.743595   33.889225   80.594154
H   12.724219   43.618752   48.109837
H    1.347055    7.328266   56.184986
H    5.014369    9.897757   17.837458
H   38.125572   42.700596   58.776558
H   18.904213    8.369152    3.627532
H   82.948441   67.383987    0.113615
H   17.663795   68.280350   78.807129
H   50.822422   68.733429   80.687500
H    3.535174   27.321514   27.031868
H   72.997650   18.510151   90.726959
H   66.530640   44.337646   97.541763
H   13.133978   35.568825   99.162857
H   15.240576   10.424343   57.440887
H   32.117538   89.109016   98.068611
H   40.711948   57.748795   55.874062
H   74.746124   72.301857   11.240029
H   50.799774   72.485893    3.703963
H   21.541416   38.025673    3.816518
H    3.203063   36.633736   75.143562
H   92.912529   19.828602    0.719260
H   98.122253   50.293282   77.217110
H   70.263184   79.040504   25.376825
H   20.385557   47.596222   97.104210
H   33.263664   52.726261   36.547249
H   67.974968   84.121376   42.944954
