100
TIME:    5.943, STEP:  5943
H   15.421734   77.018822   93.705032
H   36.343178   26.906057   52.831509
H   81.917313    1.467719   53.583584
H   82.474121   87.798065   14.406381
H   41.940140   49.115082    4.566807
H   35.861286   94.769600   67.302361
H   41.497379   62.638844   55.203419
H   52.778214    2.747687   62.528355
H    7.537651   14.898293   25.995855
H   12.436483    1.716183   40.410221
H   47.451645    5.372151   67.288795
H   29.013123   21.582264   69.899879
H   64.831741    2.204899   34.495293
H   60.818932   86.757881    9.504292
H   52.787041   39.174484   65.099609
H   62.568771   91.932411   39.720428
H   46.206459   75.053307   14.403082
H   28.155149    5.652447   93.510780
H   37.831287   27.669298   76.461655
H   32.402222   79.605751   20.959650
H   11.610664   64.573853   95.940987
H   32.141541   51.973404   13.176895
H    6.395158   46.288185   62.314270
H   66.868507    7.923800   65.695618
H   17.028728   14.849701   80.430275
H   19.454775   50.970406   31.564854
H   49.607811   95.432877   17.884237
H   31.089005   33.838844   63.219559
H   40.395973   88.287659   76.243591
H   28.873577   43.750633   55.839890
H   49.950851   54.975201   39.187691
H   41.001804   88.313553   49.090767
H   88.973991   33.663658   33.189331
H   29.208145   29.082146   21.381800
H   33.045319    9.674097   86.615646
H   89.252701   50.910179    0.741554
H   49.809639   86.889282   76.750526
H   18.358219   50.195408   41.822094
H   94.215424   51.928398   68.391472
H    3.429635   55.820202    5.616877
H   29.089245   60.099373   82.360207
H   99.370193   64.908615   83.359764
H   62.431377   99.138351   30.743549
H   99.864105   12.395956   61.810066
H   41.144428   97.412857   64.668930
H    1.411972   76.270462    7.305285
H   88.164352   48.038895   82.512459
H   56.556805   56.580948   36.297062
H   38.749092   40.250237    7.404447
H   50.520435   21.187613   68.001755
H   43.093517   95.884842   16.075909
H   93.951775   12.273125   83.915047
H   32.147884   56.468262   57.709980
H   39.064789   10.235293   94.065331
H   67.604424   79.421417   50.897076
H    0.997758    6.282264   90.313049
H   73.011330   18.064278   21.216331
H   83.527740   15.644533   60.477524
H   58.987503   89.875008   55.237434
H   66.840820   84.586823   94.577538
H   34.590107    2.195787   51.032116
H   87.989235   72.625473   26.451874
H   77.531380    1.743014   25.941101
H   51.135460   74.137161   65.790421
H   68.212479   86.186783   49.014957
H   36.257957   46.828880   97.579872
H   10.750271   53.825672   53.990555
H   69.842064   57.423985   50.312366
H   53.101734   22.760246   87.497894
H   50.788139   47.058395   89.218872
H   33.316475   91.039001   90.857704
H   83.939407   54.288406   91.740402
H   19.496658   24.341454    9.367767
H   99.383278   73.285667   50.040337
H   48.706272   37.113560   51.917984
H   66.157555   88.463432   96.041412
H    6.540450   11.445932   96.152946
H   11.193278   62.123535   42.649994
H   46.500500   36.062260   83.988564
H    8.074951   85.276009    8.926408
H   27.167437   90.764725   35.187702
H   87.250763   83.012009   89.808739
H   93.782204    6.506893   95.924316
H   59.017525   20.714485   20.616177
H   62.954445   77.147545   71.645218
H   14.511059   27.349636   54.483200
H   64.074257   71.248268    6.928680
H   51.608788   29.508425   33.958107
H   79.016953   63.275429   79.584724
H   40.897724   64.766891   36.665306
H   67.234703   94.336899   58.967083
H   18.020716   42.449402   46.763016
H   66.411240    5.837652   78.585892
H   21.635788   73.728096   27.526293
H   53.841179   17.391499   52.649540
H   84.789001   61.048920   60.485260
H   90.875237    8.737252   95.401688
H   26.805964   80.517578   59.573792
H   25.602081   62.468235   47.249168
H    8.354565   26.128227   25.232372
