100
TIME:    5.127, STEP:  5127
H   70.604408   51.849281   94.452103
H   58.879799   82.688583    1.378814
H   67.884842   42.760513   63.164761
H   82.337158   21.418201   59.136047
H   49.248978   83.709167   26.690231
H   48.517902   95.653633   86.490257
H   84.263878    7.536414   91.391083
H   16.914207   32.152546   37.449963
H   27.596489   93.353149   77.361183
H   34.731911   89.999489    8.456045
H   23.353973   72.538574   45.890659
H   60.159729   80.680763   27.983179
H   16.902512   51.550774   15.577393
H    1.222934   89.273018   47.407707
H   42.863457   12.063298    4.321261
H   95.377609   63.302872    7.455054
H   11.824341   21.082424   40.119385
H   10.705304   45.355076   21.797461
H   25.123180   93.436172   33.472179
H   54.384766   96.937782   65.402626
H   60.033272   45.808754   18.089062
H   53.910828   50.890152   82.666885
H   17.291191   52.924660   85.660217
H   42.685902   98.162079   26.297138
H   46.212677   79.563171   74.403908
H   23.174562   75.091690    8.298410
H   19.971556   29.353153    1.692561
H   99.941048   95.750748   36.244095
H   22.653053   14.253704   14.816277
H   97.585907   63.946434   90.970741
H   17.834427   81.803314    3.747017
H   89.479225   10.860095   24.631950
H   31.495888   93.367027   59.677605
H   94.728928    3.863827   55.758522
H   53.328278   71.358170   36.926414
H   18.318979   86.997047    3.307852
H   71.544342   16.773788   12.452765
H   52.082455   65.130119   84.239616
H   28.659962   69.708672   47.467667
H   80.286964   32.210457   41.416164
H   84.857880   32.102913   63.135601
H   70.834923   41.960564   43.668438
H   55.402691   94.245041   71.801643
H   51.966434   98.699280   82.026779
H   11.926802   29.606598   94.841331
H   11.941801   60.706501    3.989636
H   81.789352    3.661005   74.680672
H   56.513226   48.176407   85.807655
H   14.898872    7.832353   39.956093
H   33.406300    8.767569   25.075272
H   43.153461   74.664612    7.473719
H   54.294792   87.992142   37.484253
H   15.220588   51.736816    5.100328
H   57.959442   23.551147   58.056541
H   32.576080    7.910322   43.955547
H   99.981247    7.140616   18.091629
H   21.281853   41.609444   43.607872
H   44.288223   92.705498   81.495102
H   94.632912   55.397537   17.880051
H   20.690205   21.866085   17.786507
H   83.115509   40.142612   14.655255
H   16.948999   80.220688   63.375824
H   22.131968   57.425949   81.896667
H   95.101173   69.692093   87.941055
H   35.821564   51.359692   73.024147
H   86.386375   87.394798   49.331581
H   76.219543   25.616837   14.593670
H   26.208961   10.755576   11.302848
H   12.430120   81.392815   38.676453
H   34.259209    6.014737   90.937134
H   59.227364   46.559219    0.644484
H   51.221977   81.369705   31.996346
H   72.701248   64.702034   30.291962
H   17.344395   24.931515   98.525200
H    9.365266   35.949375   90.059052
H   46.865158   36.165199   50.946751
H   32.452999   82.172310   81.722038
H   72.856110   15.478020   97.583763
H    7.372362   38.459110   74.886757
H   48.087463   29.725651   79.225647
H   11.199276   82.322830   86.418022
H   26.010429   77.710770   58.061058
H   42.169464   92.860901   18.212889
H    2.879801   50.887741   95.145264
H    2.686273   28.187881   50.747215
H   33.293652   97.376823   97.817505
H    9.575476   30.578262   68.018661
H   38.482147   94.815018   42.424927
H   62.083359    8.709423   86.258553
H   13.042636   98.335251    7.496261
H   33.840660   50.274143   41.734661
H   57.644978   81.078888   31.217726
H   14.103925   81.357216   15.483356
H   42.772179   24.222719   72.504906
H   67.948357   90.483849   33.898075
H   17.390808   93.272552    2.632570
H   55.645073   61.908688   42.330688
H   25.684660   59.891022   73.990868
H   64.474640   58.950779   15.596581
H   57.667416   47.065746    3.839921
