100
TIME:    6.446, STEP:  6446
H   81.405838   30.891092   93.244522
H   22.452438   54.164425   84.546669
H   90.567230   37.654549   47.677540
H   82.558548   67.075104   86.835693
H   37.434814   89.432755   90.928406
H   28.059475   94.224663   17.114895
H   15.135808   96.601631   94.538673
H   13.243408   46.262310   16.343014
H   95.172890   66.536758   94.333717
H   98.696205    8.939066   60.104710
H    0.663817   25.611135   18.838497
H    9.813683   46.795200   34.095207
H   32.734177   71.788048   84.514580
H   35.913002   85.207497   47.784206
H   58.899117   94.244347   40.914104
H   42.344696   47.938332   97.966309
H    5.758092    8.324435   60.193153
H   38.911900   81.176788   76.072792
H   45.663799   48.772179    2.963620
H   18.851707   68.921913   55.206261
H   81.761948   14.497242   82.286858
H   80.364639   52.641144   70.341843
H   99.678810   42.197319   47.923325
H   20.131275   13.941133   28.337084
H   99.039131   74.960403   84.145058
H   17.161818   36.099762   84.264137
H    6.232723   74.525711   27.865797
H   88.647079   57.317192   79.844162
H   51.333092   33.923199   52.465912
H   48.160969   31.301506   95.827530
H   69.747841    0.081413   99.392006
H   72.761658   74.413818    2.525562
H   24.404331   96.862785   78.503540
H   50.460945   82.985336    0.192428
H   20.533173   71.617409   17.230265
H   32.977016   90.306831   99.160103
H   98.054634   68.468872   16.384741
H   97.568581   40.989040   77.317360
H   72.985901   40.968254   19.646948
H   56.051609    8.729992   45.192616
H   94.713669   77.359962   94.210670
H   56.980225   66.881134    9.040090
H   66.761566    2.155474   67.074364
H   67.743515   20.838644   10.991811
H   97.513298   77.564865    7.711631
H   94.919273   85.864426    9.348799
H   92.094040   75.393204   87.340141
H   56.583668   61.761688   67.419876
H   53.450882   98.593056   87.340530
H   61.075039   28.844885   32.827248
H   43.058979   47.324036   21.377533
H   18.398647   65.599686   50.896461
H   42.582279   59.384827   28.494673
H   27.417717    2.027658   16.260532
H   27.555168   23.501293   55.175983
H    1.624244    5.753157   73.189743
H    4.901218    3.549714   69.055672
H   46.072906   68.142342   47.521835
H   98.659973   11.129062   16.623650
H   33.649216   23.248882   80.271019
H   66.319267   78.802139   11.815727
H   70.136787   67.943619    3.691586
H   11.678957   67.419594   91.448883
H   85.675156   76.877197   52.132954
H   88.175598   46.013218   95.856529
H    5.359375   21.823174   27.321669
H   70.393784   71.215363   78.274796
H   35.096565   86.190529   74.358673
H   78.170509   86.617889   55.951962
H   60.976929   72.358330   88.159698
H   17.342682   56.815414   84.825020
H   42.464779   37.594910   28.567387
H   86.699600   99.462311   96.470764
H   88.308006   41.451778   20.153982
H   72.957390   37.831188   90.048233
H   78.046394   20.700497   62.194115
H   52.217373   67.883934    5.062336
H   34.825130   29.231752   70.429390
H   70.620781   34.584789   89.599113
H   83.407394   57.875648   65.592522
H   37.010841   95.968491   65.251343
H   24.999987   86.274094   47.731747
H   25.598755   14.918006   43.828262
H   93.624321   63.757347   74.674065
H   38.462975   45.684784   22.884857
H    2.933274   45.827126   89.412903
H   97.668480   34.676079   30.913610
H   59.698418   89.258423   28.742828
H   89.455185   35.268730   75.470833
H   96.425308   44.070934   54.644394
H   87.819511   21.497704   69.589523
H   55.237621   80.280319   56.345467
H   98.654633   20.930874   17.483652
H   70.247383    4.244473   61.442871
H   45.145210   72.336838   64.208344
H   26.334793   41.185577   34.504807
H   50.948997   37.602264   66.473969
H   25.835054    5.407667   49.477104
H    1.640646   64.637596    5.116318
H   39.596584   13.220509   76.777275
