100
TIME:    2.342, STEP:  2342
H   58.942291    7.248023   97.001846
H   36.123299   31.723860   25.732565
H   20.011679   42.396500   95.844521
H   81.869705   36.160606   11.789640
H   74.193970   60.479145    2.204233
H   91.701180   98.670830   10.681601
H   30.226627   19.480164   73.600304
H   35.809715   91.215027   93.158943
H   96.057106   61.119644   52.667286
H   10.840242   50.011009   99.398216
H   82.407898   60.477955   14.156530
H   66.455078   41.082901   26.222578
H   94.288109   20.013329   92.353386
H   39.119133   97.857155   35.467548
H    8.987144   60.830292   38.194496
H    7.357311    6.889213   38.635513
H   35.774139   36.877205   86.586792
H   51.192169   80.809090   18.352303
H   81.741661   76.603958   86.748322
H   29.421158   56.077419   75.786903
H   25.299026   23.063694   93.678009
H   86.910172   47.193024   19.835312
H   54.474953   75.574883   65.342911
H    1.444322   64.770325   33.136749
H   45.820061    0.432757   53.841492
H   35.920292   57.822826   69.655464
H   60.126465   45.123562   46.440800
H   34.930931   65.756355   44.186337
H   62.095322   61.576485   46.464195
H   90.796577   32.875717   69.570915
H    8.230359   32.065762   24.089710
H   13.632372   87.805534   82.453407
H   35.324741   97.130898    8.782811
H   77.056084   59.092422   73.086472
H   22.556297   81.882812   67.338585
H   76.182144   68.461723   12.588983
H    4.427668   18.767031   93.005859
H   67.190086   16.088818   87.710060
H   46.217300   30.387247   17.355017
H   42.603092   92.932808   22.297487
H   75.190605   36.543079   97.521042
H   21.135590   16.967285   12.830700
H   31.413855   77.544220   70.637596
H   29.806139   52.023628    9.722690
H   53.503788   39.486996   56.522438
H   47.872540    7.586842   92.679604
H   60.027668   52.203888   47.938103
H   56.364491   19.496424   13.487572
H   33.488663   38.484676   51.051949
H   75.005028   66.394936   19.862446
H   43.365940   43.538811   78.110519
H   18.949438   46.419300   20.313572
H   57.462021   35.588440   66.851372
H   22.458569   68.997993   35.161652
H   54.314499   63.818340   20.278761
H   96.496597   10.070620   12.899597
H   44.723736   21.969856   78.731087
H   51.666595   55.714706   53.231522
H   74.984840   37.724529   31.686289
H    4.471843    7.801093   96.998543
H    7.435487   69.656563   31.795017
H   15.790745    6.144327   89.386017
H   33.088848   47.446724   72.887863
H    3.859805   54.534393   63.558811
H   25.279388   73.793091   13.666726
H   57.472450   25.845161   84.662666
H   99.664986   29.332365   80.133743
H   18.588005   51.478943   78.163742
H   73.628227   81.505150   13.345548
H   77.831848   65.940498   96.801544
H   47.663857   36.050392   34.056927
H   80.858215   73.798615   28.091589
H   54.289062    2.462933    1.695298
H   78.650383    1.172437   64.016533
H   75.087791   31.976088   78.937241
H   81.025200   57.674042   38.342716
H   79.593781   23.557585   32.469486
H   42.011745   97.582603   43.780544
H   73.818939   46.639538   43.808578
H   84.669197   81.404297   19.155678
H   56.713268   53.510723   19.964592
H   17.045776   59.522598   90.940529
H   65.981155   46.347961   52.963779
H   11.278028   12.569551   49.514008
H   38.294006    2.389831   20.721680
H   97.387390   95.079597    4.418765
H   23.571615   33.070450   35.218994
H   93.656738   17.788147   71.391182
H    4.284965   63.773308    9.039251
H   59.275059   12.917999    7.939603
H   19.866943   99.893600   82.920486
H   51.574085   71.642876   78.147362
H   35.550694   97.808334    0.098345
H   73.591530   55.293362   84.727364
H   16.099155   39.947838   69.903496
H   87.361160    3.248859   46.481689
H   76.705521    2.083237    2.498746
H   15.464160   36.178406   18.562576
H   97.146141   46.945736   48.871513
H   84.687424   18.546993   72.117584
