100
TIME:    9.055, STEP:  9055
H    4.969712   91.635109   90.855911
H   50.398911   95.540344   49.052319
H   35.418026   25.356560   17.048466
H   82.996460   59.584648   43.827583
H   14.058599   98.555435   20.187378
H   87.600464   91.398140   75.493439
H   78.396767   72.775764   98.565956
H    8.181152   71.973770   76.794151
H   31.038689   15.690841   30.106817
H   27.435343   46.401386   62.260597
H   57.980988   30.588589   67.525154
H   10.235741   77.571037   48.383965
H   66.342346   13.901484   25.246765
H    6.732432   77.165840   46.330219
H   90.588020   61.195595   15.446457
H   37.441971   19.745689   81.396545
H   95.957680   80.888344   97.700722
H   94.700485   54.222603   85.635330
H   86.301010   58.223545   40.413677
H   48.556637   13.520960   32.839073
H   26.940178   54.764153   11.476355
H   30.492014   56.104630   48.161377
H   64.844902   20.983664   73.276031
H   77.718307   45.152313   34.570889
H    5.726323   68.054565    3.411579
H    4.911074   59.162094   38.766155
H   81.256569   66.073380   79.632919
H   68.506195   79.096497   66.085014
H    8.063037   70.632469   29.136639
H   48.201515   66.728165    3.235528
H   72.428337   34.035328   92.976318
H   37.495441    2.333866   60.997368
H    8.178289    5.975872   13.542867
H   60.697510   43.885925   90.279289
H   55.601830   74.079445   75.966934
H   59.773075   94.658432   90.959206
H   48.290985   72.921150   21.963766
H   89.732368   93.241112   61.426109
H   62.859737   84.124901   66.815643
H   10.314016   64.485527   50.463730
H   16.406420   66.879013   55.676357
H   37.107895   77.112350   42.234417
H   89.214508   17.806572   55.523991
H    1.153245   64.637306   66.083076
H   71.200882   74.637886   30.972647
H   61.241493   35.621075   19.948259
H   12.485251   17.280058   12.388094
H   56.740292   88.633560   28.849232
H   29.716927   82.515053   83.266815
H   15.848457   68.558617   50.407780
H   42.879833   95.441292   48.882523
H   45.202389   23.501858   79.631569
H   96.692192   74.512695   76.973129
H   66.994904   59.467728   31.387512
H   19.822392   52.142326   77.358170
H    4.873751    3.008742   84.373215
H   70.298492   28.268486   17.193441
H   51.801697   21.754278   80.318626
H    4.427161   21.374884   16.332758
H   61.480846   23.785358    6.064842
H   30.897402   57.470310    8.397797
H   77.538261   43.659409   85.645149
H   88.804672   89.385765   12.541931
H   64.831848   91.089432   81.296844
H   91.731293   37.636089   38.821735
H   45.085854   92.122826   81.586632
H   61.068954   61.414539    4.236906
H   54.875000   35.403145   99.083969
H    8.200922   99.151794   92.318451
H   13.927337    3.454756   82.638107
H   34.489285   79.297356   53.534218
H   27.610270   50.938866   19.774017
H   16.589020   70.411888   29.579288
H   30.873402   76.328224   65.136238
H   98.660263   41.648235   87.857910
H   39.724136   87.913567   86.642624
H   89.169754   42.067524   51.336037
H   57.393475   58.642525   14.522910
H   95.734520   26.921329   18.710451
H   55.459465   15.750359   40.824821
H   88.082115   22.960489   21.188423
H   20.776306    3.196706   29.462988
H   90.622658   58.549839   92.295082
H   73.117775   87.014992   36.382824
H   11.427979   82.475510   69.972977
H   42.891666   41.659340   70.589859
H   71.917824   44.979897   55.320549
H    1.658224   80.484962    1.691720
H   43.602543   90.004738   54.132576
H   65.756180   36.729454   47.910187
H   94.590569   62.372395   24.687157
H   48.277203   76.502090    6.063098
H   65.896469   99.208641   19.241632
H   22.396212   62.529285   37.362270
H    0.033635   38.638172   24.159788
H   41.827484   38.159302   99.746170
H   43.858757   87.326759   16.426769
H   20.799067   34.502064   97.099632
H   77.353783   75.903877   86.586159
H    1.653292   46.267315   25.442959
