100
TIME:    2.517, STEP:  2517
H   47.107574   91.199669   96.841629
H   31.255363   41.212708   36.771534
H   23.019758   54.986908   93.791069
H   81.899078   28.950544    2.197050
H   72.626511   74.506165   97.459290
H   88.988167   98.481239   28.012541
H   21.054855   31.297523   87.285530
H   22.055061    6.355094   77.091820
H   91.755272   44.294159   41.651012
H    6.058424   52.523750    6.251274
H   66.129822   67.519501   97.299576
H   59.775841   49.854797   13.766352
H   83.155678    9.425428   74.959129
H   30.454048   97.317757   48.785610
H   11.116032   45.198425   29.781931
H    0.320568   91.582977   24.108782
H   21.704391   48.450233    2.520267
H   54.931908   72.298882   12.284740
H   84.468025   83.944580   95.968826
H   24.706764   52.361713   87.701729
H   14.914276    5.641422   88.927567
H    3.687592   47.425339    4.932469
H   52.138451   74.151619   60.336121
H   85.184921   66.869171   20.139122
H   39.560905   86.552643   55.132576
H   35.117870   52.609089   53.252762
H   45.035332   37.848362   49.913509
H   20.165037   73.924767   49.971516
H   65.900482   77.454018   38.191643
H   97.507011   28.544510   83.483116
H   15.115029   47.759045   10.242403
H   24.681953   82.969643   66.252769
H   47.652126   84.326866   24.548193
H   84.450111   43.054672   65.713806
H   18.205730   68.654205   77.995705
H   91.397446   82.208366   11.987500
H   21.212395   12.357672    6.795081
H   59.957024   12.885807    0.060143
H   38.829948   26.574743    0.396624
H   26.120501   76.550591   36.066357
H   63.230473   42.547222    1.644312
H    5.407565   24.821938   21.051977
H   32.921230   78.593643   83.278740
H   18.631651   54.956940   26.833227
H   38.324535   32.582966   71.497414
H   45.614811   10.924702   93.389900
H   61.396191   61.720795   49.619049
H   56.373837   21.298201   24.315590
H   38.603600   23.991688   44.070480
H   78.674004   69.057213    7.623175
H   43.352589   26.643686   79.955688
H   27.453638   30.180019    8.824657
H   61.092278   36.603149   56.687294
H   18.406406   66.143456   42.884125
H   40.382271   79.159164   21.763441
H   96.715561    9.886703    6.942184
H   55.817448   16.920341   95.374992
H   38.635590   39.188293   48.724075
H   88.787560   45.118557   18.251402
H   92.923279   21.252668   92.021126
H   18.474867   61.517933   18.151180
H    9.580322    4.515118   81.468613
H   44.959614   35.513206   60.882248
H   15.876825   55.486351   58.807034
H   32.225498   59.816402   29.964163
H   46.721870   17.145363   95.010033
H   85.624611   35.382198   88.582535
H    6.499348   61.487183   86.529755
H   82.349388   68.930763    2.369650
H   81.377991   74.741768   96.433044
H   42.106987   24.143137   31.956760
H   66.427979   67.990738   40.904762
H   42.878922   93.806236   97.208733
H   74.799828   90.098663   53.615761
H   83.525902   32.225697   92.203232
H   85.161476   68.890007   26.567772
H   95.481995    8.389681   35.564350
H   50.233562   86.140419   53.445652
H   82.211655   46.125507   45.761894
H   76.086891   71.874039    4.079452
H   60.137913   55.321178   30.423443
H   30.176918   60.665482   76.307350
H   77.052170   49.269257   69.631714
H   23.316891   27.544527   33.529663
H   29.772942   91.444077    3.757579
H   93.360596    1.507150   16.571514
H   35.259468   20.346527   43.563644
H   96.473892    3.777436   69.570045
H    7.917057   54.029427    7.607597
H   43.802074    5.717567   14.195088
H   27.028656    9.342984   86.616165
H   64.523590   84.802055   81.482552
H   46.779255    3.052235   13.637041
H   90.505135   65.908852   96.527367
H   13.073051   24.271912   73.924950
H    1.815450   96.338326   37.442764
H   62.814682   12.125873   92.434364
H   16.106642   37.668427   15.762140
H   88.809502   47.700092   34.212967
H   95.555496   14.052086   55.262726
