100
TIME:    7.055, STEP:  7055
H   40.221024   75.043587   92.686966
H    5.635069   87.163841   22.945179
H    1.039586   81.469170   40.526882
H   82.660767   41.985077   53.455196
H   31.980047   38.246700   74.415451
H   18.613544   93.564888   77.426926
H   83.217224   37.725315   42.163342
H   65.377205   98.949799   60.428101
H   80.202507    7.983911   56.000759
H   82.062447   17.684343   83.949532
H   44.016113   50.115726   60.175362
H   86.570953   77.321396   90.746849
H   93.875694   34.954556   24.000305
H    5.760134   83.330391   94.128044
H   66.296028   39.845451   11.628468
H   17.857346   94.672791   47.414551
H   56.785988   48.603443   15.632836
H   51.935482   51.542679   54.961990
H   55.146900   74.320312   35.046413
H    2.445618   55.989491   96.669853
H   45.623016   53.870468   65.755318
H   38.750061   53.449600   18.479828
H   91.547783   37.244362   30.499495
H   63.547729   21.226534   83.108215
H   77.257271   26.663155   88.642677
H   14.342358   18.119694   26.975668
H   53.719021   49.209946   39.950825
H   37.261406   85.743263   99.971939
H   64.575050   89.177010   23.678102
H   71.513275   16.228905   44.240532
H   93.713463   54.690475   51.209862
H   11.214222   57.586689   46.147362
H   67.302864   52.304756   33.367073
H   76.192162   27.173965   74.535568
H    5.376224   25.507515   54.284515
H   85.916969   38.007004   97.245827
H   56.464638   46.166626   64.371735
H   72.394920   29.842564   20.293564
H   47.279537   27.699171   60.630341
H   98.691643   51.718342   93.107101
H   53.092102   98.259026    8.557821
H    5.656946   69.269333   40.130207
H   72.002594    5.808775   11.064669
H   28.858173   31.060507   70.535393
H   44.686554   53.536221   59.825630
H   87.057732   97.480179   11.822954
H   96.851852    8.512521   93.185188
H   56.618221   68.034195    5.101254
H   71.252754   48.154270   63.049484
H   73.860596   38.115047   90.246376
H   43.017162   88.528534   27.796398
H   48.001301    9.086853   10.919833
H   55.215572   62.916016   93.125130
H   13.316193   92.093140   43.133377
H   79.065140   76.871864   60.356609
H    2.382753    5.112548   52.457947
H   43.507671   85.977226   26.976768
H    0.726222   10.629560   31.835897
H   46.689301   36.864704   69.872246
H   93.462135   70.059769   62.949608
H    4.735031   50.480507   64.331406
H   48.522194   62.275131   76.138504
H   53.025249   25.862732   49.687927
H   27.493504   80.194656   35.596767
H   12.347034   97.372772   52.570591
H   67.947662   91.548485   63.330505
H   21.532782   92.272400    7.677083
H   93.028511   21.020502    3.472396
H    8.521244   42.859024   17.754719
H   73.316368    2.987036   86.877319
H   98.003456   15.379682   77.521034
H   92.294762   17.359138   73.176994
H   46.992310   69.340683   80.859192
H   74.898781    2.909031   83.969757
H    2.318619   38.703289   36.216450
H   92.440636   59.733402   21.217772
H    7.527181   15.171986   15.862822
H   63.437054   89.411156    4.059772
H   99.827431   32.795963   96.392006
H   53.540970   24.700546   13.126552
H   48.928604    2.269397    1.650409
H   70.697395   90.223450   96.783379
H   64.121223   25.102575    1.825125
H   35.522495   15.870621   19.052303
H    8.809568    7.589503   63.849251
H   88.919174   68.198196   31.703949
H   38.342289   90.396492   59.952995
H   69.492821   40.525776   22.428505
H    2.093412    1.361645   70.489998
H   42.582119   19.013432   76.414963
H   12.742420   54.380318   82.450485
H    0.297455   26.082546   67.948860
H   37.692493   39.204777   64.578560
H   29.105339   41.191490    2.506845
H   34.616692   17.785324   78.203003
H   76.635651   17.137758    3.048868
H    2.609970   72.551743   31.450111
H   24.659540   35.540928   37.252686
H   72.629173   67.267403   54.107868
H   77.423775   97.592606   18.109440
