100
TIME:    3.194, STEP:  3194
H    1.325537   29.115166   96.221817
H   12.423162   77.919113   79.476578
H   34.656731    3.693627   85.847145
H   82.012711    1.056427   65.090759
H   66.562683   28.770687   79.102524
H   78.492683   97.747795   95.058159
H   85.572594   77.012352   40.227898
H   68.844193   64.922440   14.930950
H   75.113319   79.203262   99.035347
H   87.557884   62.244469   32.763687
H    3.156926   94.760239   32.087551
H   33.934845   83.789505   65.576622
H   40.091942   68.465912    7.671753
H   96.933159   95.231056    0.303863
H   19.351784   84.726547   97.238930
H   73.100464   32.370270   67.911476
H   67.264656   93.229492   64.150772
H   69.397423   39.376534   88.813171
H   95.015160   12.344371   31.634539
H    6.468796   37.987240   33.794975
H   74.740234   38.244820   70.550140
H   68.592239   48.324066   47.279663
H   43.099525   68.645622   40.966995
H   22.284332   74.988708   69.860298
H   15.348659   32.859261   60.128212
H   32.013645   32.439373   89.797646
H   86.656784    9.705489   63.347935
H   63.040394    5.524811   72.349968
H   80.621017   38.876358    6.190731
H   23.465221   11.788600   37.302002
H   41.759426    8.468095   56.679832
H   67.428322   64.261650    3.579488
H   95.338104   34.793556   85.537697
H   13.055034   81.011757   37.192123
H    1.376165   17.478394   19.221138
H   50.260311   35.390194    9.660623
H   86.145058   87.563950   60.140011
H   31.977676    0.495104   47.832478
H   10.251710   11.825800   34.789536
H   62.353390   13.171380   89.331581
H   16.964537   65.775070   17.594954
H   44.562645   55.208221   52.857773
H   38.752628   82.653412   32.179928
H   75.400757   66.303619   93.026451
H   79.599312    5.873743   29.430483
H   36.880627   23.837452   96.137733
H   66.687790   98.537628   56.121910
H   56.409992   28.268503   66.204552
H   58.391098   67.921501   17.063601
H   92.867699   79.356422   60.270702
H   43.300938   61.283478   87.093857
H   60.354969   67.360748   64.383202
H   75.132088   40.528625   17.366348
H    2.730328   55.096306   72.759064
H   86.481949   38.498253   27.513964
H   97.562637    9.175009   83.895508
H   98.738441   97.384941   59.763435
H   88.224602   75.253632   31.286591
H   42.180313   73.722885   66.279259
H   48.246986   73.290131   72.765633
H   61.180733   30.036648   65.365250
H   85.553307   98.212784   50.837349
H   90.900963   89.330009   14.448318
H   62.366997   59.169067   40.424442
H   59.099514    5.744007   93.012077
H    5.132777   83.489693   35.038010
H   31.308384   58.785267   21.268847
H   59.734352    0.204783   18.894270
H   16.089790   20.285851   59.911800
H   95.096497    8.790962   95.007477
H   20.608471   78.079842   23.834641
H   10.607656   45.522552   90.471466
H   98.736191   60.316296   79.853996
H   59.902256   47.257301   13.379631
H   16.167582   33.191570   43.525181
H    1.163265   12.277693   81.013458
H   56.950191   49.712502   47.537052
H   82.040253   41.872929   90.832108
H   14.677604   44.136944   53.318436
H   42.885628   35.001492   45.755203
H   73.382736   62.325054   70.886734
H   80.973953   65.086807   19.697290
H   19.883116   60.570496   34.112522
H   69.891251   85.476288   71.693604
H   96.807449   49.098766   38.129875
H   77.782654   26.374554   63.584255
H   80.474754   71.123100   75.845520
H    7.370508   49.574951   62.525932
H   21.967991   16.335600    2.068673
H   83.946167   77.866287   38.395386
H   54.734253   45.897999    0.913178
H   14.615856   35.712517   94.384972
H   90.196289   23.352537   66.001366
H   55.940777    6.971911   42.173454
H    1.366709   63.631618   89.482231
H   57.732895   69.603767    2.474537
H    9.077916   50.977627   53.499840
H   18.591055   43.432678    4.929634
H   56.558617   50.618374   77.506187
H   37.602253   96.671700   90.051376
