100
TIME:    6.591, STEP:  6591
H   71.599930   17.594374   93.111771
H   18.448322   62.022205   93.688820
H   93.060745   48.086601   45.975002
H   82.582886   61.101288   78.888306
H   36.136063    1.055134   86.996750
H   25.810444   94.067574   31.474731
H    7.536608    6.392677    5.877913
H    1.846694   58.806217    3.029418
H   91.608513   52.595642   85.207054
H   94.735786   11.021328   65.782051
H   87.176270   31.445562    4.871384
H    4.279053   54.063343   23.774223
H   23.481400   63.019688   70.106621
H   28.733612   84.760567   58.819172
H   60.660286   81.292229   33.941334
H   36.514694   35.256142   85.930176
H   94.098000   17.914845   73.393074
H   42.012753   74.121048   71.045937
H   47.921680   54.855515   10.602443
H   14.945496   65.842079   65.078545
H   73.157440    0.061685   78.350777
H   94.265930   52.833633   57.993744
H   97.742851   41.018044   43.774841
H    6.658661   15.675753   17.568174
H   93.852974   63.461861   85.215919
H   16.500826   31.812996   70.628349
H   93.729454   68.498795   30.743185
H   76.411819   64.085304   84.636490
H   54.485939   47.078869   45.611511
H   53.721043   27.712791    7.354500
H   75.453941   13.083653   87.920067
H   81.917084   70.406937   89.102196
H   34.618038   86.253731   91.566284
H   56.587425   69.696915   94.083664
H   16.924545   60.638863   26.052706
H   45.581768    1.663773   98.704323
H   11.962010   63.158813   27.810217
H   91.574852   38.335117   87.550285
H   66.866058   37.808769    5.595735
H   42.394802   95.155624   56.601498
H   84.803772   82.335930   97.626808
H   44.760452   67.449753   16.442642
H   68.009430    3.025342   77.548454
H   58.484760   23.272421   25.169016
H   84.935097   71.843277   20.120020
H   93.047478   88.630081    9.937883
H   93.226852   83.278641   88.731819
H   56.591412   63.255142   76.391663
H   57.688972   86.583473   81.556992
H   64.118408   31.052431   22.688864
H   43.049023   33.325394   22.905834
H   25.447197   52.144348   41.378181
H   45.590206   60.225586   20.073252
H   24.060211   99.661743   22.658600
H   16.009663   36.208557   56.409466
H    1.804842    5.600631   68.253601
H   14.093427   99.365654   82.846336
H   35.275787   54.449028   43.787094
H   10.095775   17.256428    5.492209
H   24.081154   34.394474   76.146873
H   75.465843   72.058365    0.510561
H   64.990456   66.593979   97.130936
H   21.523031   57.525185   81.505798
H   95.631516   77.667068   48.195766
H   93.930374   34.431759    9.359946
H   96.452057   14.614822   35.895203
H   58.760330   76.228943   85.275223
H   25.080467   94.483070   81.290512
H   85.396614   76.199112   46.857380
H   63.914055   79.650810   87.854370
H   12.738062   46.949768   83.085976
H   30.509333   32.782669   39.184006
H   77.245483   92.289307   92.753723
H   85.115334   32.275333   11.538965
H   79.948967   38.038059    1.040093
H   81.473595   29.993652   52.437988
H   65.386322   55.333729    7.633981
H   41.637493   19.750532   78.436516
H   77.574745   34.158878   91.216469
H   76.296341   49.976936   53.100609
H   39.848404   97.468582   73.917801
H   35.880432   87.214417   35.601582
H   34.770775   17.342810   57.637733
H    3.600389   76.165184   61.430111
H   31.402761   36.614540    8.828831
H   99.595932   51.153778   99.482101
H    7.352776   24.133400   37.827751
H   62.030418   77.655945   27.239418
H   92.464218   27.195559   74.284920
H   83.605942   38.104862   59.827232
H   93.753502   29.327274   72.651657
H   65.966156   91.185852   59.107803
H    7.949324   25.281803   28.696726
H   84.261513   13.041194   71.220016
H   42.638420   59.348923   67.540405
H   38.311188   35.459564   27.015411
H   39.439445   45.923569   58.134964
H   25.555170   12.582280   46.566528
H   94.733177   65.263741   92.971321
H   48.602665    9.499596   62.809513
