100
TIME:    6.949, STEP:  6949
H   47.389481   84.764351   92.784012
H    8.562298   81.420341   16.261547
H   99.217148   73.842979   41.771496
H   82.642975   46.352142   59.265820
H   32.929489   29.750334   77.289627
H   20.257664   93.679726   66.929794
H   88.773102   30.567371   33.874004
H   73.708595   89.778961   70.160484
H   82.808189   18.175507   62.673473
H   84.957649   16.162340   79.799202
H   53.875977   45.850559   70.385902
H   90.616150   72.008133   98.292168
H    0.636608   41.368488   34.533867
H   11.008497   83.657112   86.061913
H   65.008553   49.313896   16.725803
H   22.119682    3.943989   56.213379
H   65.309853   41.592686    5.983239
H   49.668652   56.700668   58.635986
H   53.496311   69.873993   29.462231
H    5.301193   58.240147   89.452873
H   51.913208   64.423370   68.632729
H   28.587738   53.308884   27.506714
H   92.963036   38.106453   33.532379
H   73.396309   19.958467   90.980255
H   81.048531   35.069756   87.859840
H   14.842144   21.244167   36.950974
H   62.859936   53.616638   37.847355
H   46.204994   80.795540   96.468582
H   62.270210   79.559761   28.688501
H   67.448669   18.852379   35.813713
H   89.542107   45.185638   59.596245
H    4.521440   60.515049   55.960320
H   59.836346   60.060341   23.817755
H   71.713493   36.888260   79.001297
H    8.014357   33.533211   47.835007
H   76.702461   29.704617   97.579018
H   46.298271   50.048462   56.019321
H   76.776543   31.782673   12.813750
H   51.754162   30.008459   70.902649
H    8.675671   61.642094   84.767624
H   60.336578   94.621422    6.060709
H   14.590223   68.853653   34.719090
H   71.090363    5.172922    3.408354
H   35.626316   29.281332   60.171188
H   53.880844   57.718090   50.755070
H   88.426079   95.458389   11.392313
H   96.023727    2.747672   92.167824
H   56.611752   66.942429   98.542694
H   68.153755   56.932880   67.277634
H   71.635010   36.501659   97.657448
H   43.024441   98.762024   26.679157
H   42.848972   18.923264   17.877876
H   53.016674   62.301392   99.281075
H   15.770645   93.822174   38.455765
H   87.504898   67.582954   59.454891
H    2.250730    5.224050   56.066437
H   36.788052   89.035789   16.895317
H    8.619082   20.640249   34.566147
H   38.329605   32.385227   78.009544
H    0.457489   61.912556   65.964500
H   98.048424   55.409630   72.596481
H   52.284340   63.261765   80.934189
H   45.828487   33.096230   56.956665
H   20.214657   79.617233   38.474987
H    8.139689    5.838761   42.699406
H   74.459442   96.818077   57.062958
H   30.037642   88.607300    2.559212
H    0.350635   14.957965   98.404984
H    3.238022   50.475510   24.403172
H   71.168419   97.655693   87.100525
H    1.369447   22.591827   78.792336
H    1.017637   20.886353   65.408470
H   53.903595   74.582779   83.576477
H   77.232735    9.617657   90.268036
H   97.210930   38.548817   28.179802
H   89.935234   52.939381   28.350241
H   97.899994   24.346867   13.982962
H   58.456982   96.341850   98.205833
H   94.743843   33.107319   95.209663
H   58.739395   30.475182   22.258507
H   46.854248    1.172526   95.314987
H   62.742996   89.536041    5.651448
H   57.416176   23.329870   91.730621
H   28.230095    6.799862   28.733440
H   13.970793   14.220366   74.124794
H   91.358261   64.305038   24.343018
H   31.262789   98.103554   54.898521
H   67.788048   49.008396   23.527550
H   99.893417    7.263428   71.356941
H   51.954327   23.374836   72.625320
H    8.404469   48.657036   80.211960
H   92.454529   18.110630   65.928688
H   30.897663   36.024097   56.381416
H   18.860931   34.760582   95.359451
H   36.449242   27.280457   75.767151
H   67.880493   21.323267    8.524076
H   11.023647   66.468582   37.546249
H   24.864145   30.296276   39.380417
H   77.678795   66.809669   62.986759
H   70.839211    0.313064   28.321095
