100
TIME:    9.602, STEP:  9602
H   67.977936   41.472298   90.355118
H   35.291641   25.182087   83.542107
H   44.820423   64.710228   10.627003
H   83.088272   37.048943   13.843764
H    9.157084   42.399628    5.356882
H   79.120361   90.805534   29.663757
H   49.728420    9.710345   41.342083
H   65.188034   19.297337   26.569801
H   17.592384   63.098801   95.675346
H   12.492918   54.255497   83.677864
H    7.100363   52.598328   14.834017
H   89.358955    4.989262    9.448483
H   31.462082   80.792015   70.886673
H   79.648117   75.479836   87.956276
H   97.231880   12.334846   89.140404
H   15.447220   71.902878   35.991272
H   51.971321   17.069077   47.496292
H    6.400145   27.605431   66.671951
H   94.822845   81.169281   69.232010
H   33.820789    1.904639   70.081413
H   94.479935    0.307955   96.628418
H   82.933441   56.830780    1.579298
H   57.541664   16.537035   57.626236
H   26.893280   51.696014   93.945969
H   86.162338   24.673721    7.449264
H    2.330775   43.036545   87.291023
H   34.087524   43.333561   90.483444
H   22.353064    4.628606   84.163658
H   19.957577   20.260569    3.280994
H   69.176414   53.190048   46.719765
H   93.954109   83.085495   49.699417
H   72.033493   87.218811   10.358803
H   46.709961   65.954376   62.820946
H   83.809128   93.756767   67.234444
H   41.988594   32.663826    9.245618
H    7.323091   37.503429   89.239815
H    0.756162   52.889412   65.065384
H   67.121544   83.233589    0.028664
H   39.768986   72.206017   13.807373
H   58.791576   13.275317   93.499893
H   79.022995   85.650421   68.563438
H   91.009361   79.257828   70.157463
H   93.921967   21.088856   95.035698
H   66.231117   73.818520   19.566311
H   23.752478   53.057835   77.782379
H   54.184479   46.054272   22.170530
H   16.762005   47.030331   17.640882
H   56.773678   94.267487   62.694523
H   45.704758   37.212406   61.448425
H   27.329161   76.888481   12.160658
H   44.747211   42.776138   51.723007
H   71.786179   72.745407   43.724678
H    8.037310   77.684387   45.203766
H   54.328018   50.541084   55.525703
H   76.269203    0.077637   82.007202
H    5.555038    2.433352   65.752045
H    4.977963   12.484913   69.217537
H   11.071443   70.096626   66.229637
H   47.569225   44.489716   74.340416
H   25.386158   65.830963   90.506874
H   65.406006   32.034176   65.754509
H   58.124168   38.568008   60.897079
H   25.941521   52.062035   75.033401
H    2.391520   94.069153   66.448318
H   13.442016   93.946693   89.760780
H   11.483746   64.929741   13.929965
H   17.182049   80.327271   30.647427
H   17.090134   66.686043   25.233734
H   35.464653   59.847855   58.013371
H   25.036606   30.927927   81.477936
H   17.117714   42.077595   46.973824
H   82.565529   32.776756   59.867344
H   80.923828   43.355534   15.552898
H   18.833492   41.709393   32.634743
H   25.008375   42.453678   29.331579
H   52.657127   22.970505   49.835915
H   38.849556   94.722214   61.038910
H   83.091454   22.877525   44.733276
H   21.964773   25.314617   24.815958
H   28.633892   85.952461   93.700447
H   98.790749   28.619455   53.881889
H   61.821075    6.747644   83.700233
H   25.220770   67.697670   44.389423
H   10.751801   33.823563   86.423119
H   84.794113   48.256546   16.947889
H   30.300884   61.753677    8.575255
H    8.450792    5.208303   81.403542
H   10.454763   36.715614   96.023193
H   54.953861   59.548149   49.658821
H   17.392832   14.222961   67.462738
H   16.976736   91.910629   36.238792
H   88.749664   17.641703   16.483873
H    0.960341   15.621893   61.541985
H   73.354591   95.569931   77.172676
H   90.576981   89.640663   36.728401
H   87.007401   16.559904   71.493073
H    0.441112   18.717449   84.968033
H   19.743227   61.565777   86.115562
H   51.295830   78.265953   40.769787
H   35.628395   32.232578   72.749420
