100
TIME:    1.505, STEP:  1505
H   15.545509   84.005203   97.768143
H   59.405937   86.343971   72.935204
H    5.624332   82.180046    5.668614
H   81.729218   70.643944   57.670376
H   81.690903   93.389915   24.897469
H    4.678480   99.577614   27.790640
H   74.092308   62.963833    8.145821
H    1.596266   18.804005   70.010689
H   16.632225   41.593842    5.352023
H   33.711235   37.992928   66.626274
H   60.263596   26.799229   94.780441
H   98.396866   99.128777   85.801811
H   47.528786   70.652748   75.543694
H   80.562996    0.437127   71.772011
H   98.805840   35.593861   78.429153
H   41.011978   80.098259    8.112960
H    3.067754   81.525040   10.382321
H   33.305534   21.512711   47.370895
H   68.701851   41.490715   42.651058
H   51.969429   73.852646   18.799997
H   74.967804    6.389245   16.396374
H    6.657044   46.086365   91.106789
H   65.650108   82.382149   89.289673
H   79.210701   54.731846   95.299332
H   75.756706   66.813454   47.666420
H   39.758160   82.764191   48.108566
H   32.300613   79.916885   29.831327
H    5.554843   26.688015   16.519289
H   43.895782   85.637543   86.030632
H   58.701534   53.591263    3.032184
H   75.304176   57.005692   90.319794
H   60.783787   10.932374   59.938683
H   76.368484   58.369179   33.379242
H   41.691505   35.798378    8.348360
H   43.362694   45.153755   16.373070
H    3.408276    2.708903   15.465787
H   24.148430   49.420265   27.053289
H    1.788110   31.408360   28.645206
H   83.061600   48.380684   97.879227
H   21.439596   71.290855   56.445263
H   32.391014    7.823441   77.801682
H   96.360352   79.403618   73.507568
H   24.204283   72.524979   10.181497
H   83.255180   37.994019   27.885271
H   26.108276   72.509628   84.896805
H   58.670933   91.622353   89.282356
H   51.971485    6.926055   40.483345
H   56.319790   10.878782   61.698803
H    9.024648    7.805944   84.439407
H   57.454456   53.656460   78.402672
H   43.429798   24.345713   69.285339
H   78.273354   24.085955   75.262100
H   40.099022   30.735229   15.461147
H   41.839481   82.650841   98.228897
H   20.946556   90.441223   13.177113
H   95.449326   10.950264   41.393051
H   91.662613   46.120964   99.125359
H   13.991743   34.759346   74.789993
H    8.973732    2.357871   95.943436
H   59.702938   43.467701   20.803795
H   54.637432    8.583360   97.054771
H   45.495758   13.936604   27.257919
H   76.316711    4.523223   30.309425
H   46.385368   49.981316   86.279625
H   92.057869   40.642323   35.718739
H    8.890762   67.455055   35.172695
H   66.819595    0.395759   39.724377
H   76.405067    3.609141   38.150303
H   31.911247   41.646622   65.842934
H   60.872330   23.839815   98.564026
H   74.241570   93.000175   44.097324
H   49.872478    1.576952   66.811882
H    8.862568   43.862095   23.157940
H   97.067039   54.141159   13.761971
H   34.734146   30.785135   15.487064
H   61.241093    4.028515   94.662590
H    3.598797   96.103500   17.664103
H    2.687968   52.313263   97.554504
H   33.691521   49.093601   34.470589
H   25.717606   26.988077   91.264168
H   40.333683   44.851574   69.939003
H   54.245472   54.056351   60.930374
H   13.023948   32.375824   73.243713
H   53.701443   40.946392   25.964851
H   79.048203   54.746628    1.859666
H   16.652164   64.338341   46.295097
H   67.670265   93.927155   95.307205
H   80.182693   84.800766   80.098991
H   86.914986   10.376510   15.886429
H   33.275970   47.356636   78.016838
H   85.613319   54.696201   65.244583
H   89.641716    8.696596   62.196350
H   81.847969   72.724899   35.346298
H   92.691383    4.521515   28.293468
H   30.572578   14.920410   50.669456
H   18.228455   36.299614   89.713577
H   43.142258   54.049282   50.635300
H   12.390992   29.051849   31.956799
H   37.017174   43.337757   18.984608
H   32.706985   40.045994   52.732979
