100
TIME:    4.451, STEP:  4451
H   16.319397   13.841873   95.070999
H   77.549843   46.057701   58.756752
H   56.263336   94.127235   71.097496
H   82.223694   49.269524   96.187996
H   55.303848   29.524782   45.019135
H   59.003040   96.385994   19.543344
H   19.693825   61.891819   38.527004
H   70.046471   73.669373   99.517174
H   44.213860   58.347900   19.912008
H   53.205971   80.293129   81.986420
H   86.233856   45.338078   11.006992
H   85.958168   46.796181   76.102165
H   60.039597   92.428886   82.748291
H   34.693092   91.356636   95.962372
H   34.642448   72.446198   36.816677
H   22.559483   22.428459   63.569275
H   66.184181   76.369141   78.580437
H   96.250938   78.246498   45.231884
H   14.594204   65.080399   97.859421
H   72.598228   11.294134   19.377359
H    0.148080   13.105778   36.436142
H   89.102051   49.992752   40.234497
H   26.316765   58.422523    5.001069
H    5.495389   90.064423   76.503540
H   70.390900   33.173119   69.411476
H   26.256151   95.071732   71.865837
H   78.264656   57.455967   88.282570
H   56.978603   64.197342   13.896897
H    7.953555   52.921383   46.770576
H   71.664459   80.677269   37.229897
H   91.229729   21.185585   57.229988
H   46.796001   29.535652   87.212700
H   83.879982   42.825600   98.778183
H   66.166855   65.815155   84.238075
H   70.131317   22.458794   95.764099
H   59.555393   34.050449    5.434492
H    6.708182   41.531235   59.186695
H   80.023430   77.497734   36.535984
H   57.196247   84.438408   12.977411
H   43.958817   95.495216   88.229858
H   31.056877    8.909764   47.209332
H   31.590622   11.620618   11.913303
H   49.579906   90.191269   22.974569
H   95.133026   87.363586   15.930291
H   70.563545   56.275879   36.995136
H   20.663685   47.812824    1.241627
H   76.508102   66.898338   68.192574
H   56.477123   41.213821   43.980568
H   95.139084   63.816700   66.923950
H   19.228413   98.479179   72.354713
H   43.205036   39.928490    0.347383
H   21.442533   50.720234   81.862213
H    1.198466   47.817139   44.362385
H   73.615532   34.582977   28.226059
H   86.399445   48.663448   38.204967
H   99.135422    7.851703   41.104263
H   78.425354   61.114998   79.314537
H   94.625137   56.545723   98.906723
H   41.317177   26.834999   69.778404
H   65.297318   69.907639   37.013557
H   40.473541   71.578636   67.359810
H   40.939934   86.512802   93.959732
H   76.239525    3.554475   28.252037
H   48.682236   66.009659    6.293102
H    8.989453    5.349619   10.071158
H   27.913002   21.000282    9.361362
H   30.456881    2.246358   81.956161
H   72.904701   72.094559   78.986137
H   78.739975   29.965851   81.073944
H   20.563971   72.016113   92.360596
H   80.692757   92.553543    8.754131
H    6.962310    3.804824   82.503563
H   16.777887   98.143074   47.626221
H   32.225719   67.712715   38.690239
H   76.771004   34.984928   38.814419
H   30.882158   92.839928   96.434158
H   71.077652   40.763378   69.767021
H   41.096401   59.681736   60.253471
H   74.953484   40.444736   67.346535
H   81.239685   66.544319   37.463524
H   97.971878   75.329300   46.014400
H   75.289604   73.295975   14.587584
H   99.409065   81.555725   53.835384
H   56.370735   93.040474   56.886017
H   35.603119   70.473198   16.277740
H   48.853741   72.548759   50.874207
H   64.426949   79.728958   35.784470
H   27.600927   48.936333   49.454559
H   48.055038   46.347298   91.787361
H   72.811050   26.149185   83.329361
H    6.175944   13.773434   27.458780
H    7.626018   30.238579   18.338507
H   70.771263   61.070595   63.207195
H   77.434219   83.219208   26.927084
H   79.635185   51.036819   18.366035
H   61.555939   19.966320   37.549141
H    9.303176   23.114193   81.207703
H   23.203917   54.135284   84.811241
H   96.677887   56.036808   72.219704
H   15.680435   64.410439   68.962036
