100
TIME:    1.162, STEP:  1162
H   38.740639   15.459888   98.082169
H   68.947090   67.748405   51.298824
H   99.729218   57.502850    9.696083
H   81.671646   84.775108   76.470940
H   84.763123   65.896950   34.197868
H    9.997498   99.949211   93.822136
H   92.070290   39.801807   81.322685
H   28.555389   89.129929    1.502346
H   25.063820   74.571793   26.942934
H   43.084908   33.067955   53.194328
H   92.168625   12.997933   27.820078
H   11.488766   81.935860   10.216860
H   69.346375   91.404625    9.635936
H   97.546562    1.494594   45.669392
H   94.634529   66.229889   94.915512
H   54.802948   10.099064   36.584457
H   30.643520   58.841904   79.152809
H   25.975647   38.192719   59.262009
H   63.358490   27.100481   24.581484
H   61.209641   81.138046   95.447044
H   95.321915   40.536926   25.705933
H   73.767937   45.633644   20.312740
H   70.229652   85.171745   99.102982
H   11.079178   50.618107   20.773865
H   88.024651   94.018562   45.135895
H   41.330906   92.985733   80.258286
H   61.879234   94.173660   23.024817
H   34.494972   10.677711    5.181729
H   36.437668   54.517582    2.244688
H   45.549084   62.080429   75.764397
H   61.811527   26.246611   17.461327
H   39.126469   20.408455   91.691933
H   52.208149   83.465080    2.479092
H   27.199211   67.232368   22.797823
H   51.888496   71.081825   95.487152
H   73.586151   75.765335   16.646055
H   91.250023   61.981300    0.026497
H   15.964415   37.686260    4.441397
H   98.480270   55.702721   30.754692
H   53.745438    3.400211   29.457479
H   55.830429   96.053780   69.720749
H   27.187248   64.011116   57.392811
H   21.249823   70.468109   85.405556
H    5.158254   32.244728   94.348396
H   55.859871   86.044144   55.545097
H   63.096081   85.080147   87.890175
H   48.349720   88.423843   37.552437
H   56.301472    7.347299   40.475887
H   98.998894   36.212204   98.120468
H   50.260647   48.435780    2.394000
H   43.455967   57.460045   65.668808
H   61.603813   55.914768   97.777756
H   32.983719   28.746399   35.382385
H   49.781719   88.245735   83.092850
H   48.253723   60.372929   10.266485
H   95.020157   11.310740   53.069580
H   69.916321   56.018013   66.503304
H   39.533386   67.151115   83.624588
H   81.921242   87.865448   22.275620
H   82.338470   17.102613   30.559532
H   33.001049   24.533562   23.797363
H   57.669495   17.129623   42.778648
H   53.051399   27.914177   53.840431
H   22.831320   48.115479   95.590492
H   78.444847   68.038078    3.775613
H   29.961678   84.506660   14.891895
H   94.338730   88.536102   23.164047
H    0.098324   83.992783   21.752920
H   14.815201   66.292419   87.353706
H   53.924507    6.587688   99.286285
H   85.133034   16.338453   48.211063
H   78.154434   12.961044   41.697952
H   31.227753   60.827343   31.953281
H    4.615397   75.846771   34.147484
H   18.196976   30.297087   89.485039
H   53.131374   82.046410   17.742123
H   72.457726   25.832361   11.595230
H   86.573196   74.741310   78.613510
H   17.249651   50.098484   30.645172
H   42.538925   45.669647   20.813721
H   33.621380   41.303082   49.438351
H   28.508614   51.816299   89.611404
H   91.320427   26.651308   40.574558
H   30.105017   11.595437   57.294167
H   95.749146   76.200958   35.109505
H   24.547298   51.738125   22.476234
H   44.762077   18.866066   78.951691
H   74.661072   12.262030   83.663185
H   79.797066   29.473402   18.693008
H   63.601456   61.469482   65.754128
H   71.576363   36.176525   58.001049
H   64.263191   82.899803   55.661995
H   59.839989   62.446182    8.810146
H   59.540367   83.716972    5.166812
H   36.502750   45.645226   42.787407
H   89.897995   49.844597    7.430111
H   70.368301   34.365093   70.361359
H   11.131618   26.131409   37.444412
H   53.356987   41.859219   47.715359
H   11.405563   48.857037   85.768501
