100
TIME:    3.456, STEP:  3456
H   83.607330    5.088568   95.981949
H    5.134767   92.123306   96.003494
H   39.160255   22.542271   82.772835
H   82.056686   90.262260   50.728802
H   64.215973   49.771145   71.998428
H   74.430916   97.463951   21.005011
H   71.840141   94.702629   60.716637
H   48.251511   87.589981   90.875237
H   68.672859   54.013107   82.544411
H   80.397820   66.006401   43.024048
H   78.786331    5.302281    6.850424
H   23.934341   96.922287   46.926872
H   23.426586   52.614624   81.630455
H   83.960289   94.423500   20.242886
H   22.539032   61.323410   84.645851
H   62.566254    9.454721   46.163429
H   46.196236   10.559035   88.001663
H   74.994347   26.635536   79.730164
H   99.096916   23.336329   45.436954
H   99.410515   32.424297   51.633171
H   59.192780   12.161156   63.438210
H   93.710434   48.671875   24.967926
H   39.601448   66.514793   33.471115
H   97.941628   78.130981   50.401592
H    5.978309   12.080681   62.063148
H   30.811316   24.632719   65.239143
H   64.065201   98.814285   68.545326
H   40.934544   17.754089   81.009209
H   86.317886   62.647293   93.805946
H   33.510849    5.303664   58.130554
H   52.071758   31.962023   35.951225
H   83.971230   57.023560   79.324837
H   13.793076   15.624947    9.140729
H   24.125816   57.000954   26.154720
H   94.863602   97.672874   35.174370
H   73.042534   55.972881    8.757413
H   11.274720   77.969223   80.784660
H   21.149628   95.701546   66.320564
H   99.192261    6.117937    9.400381
H   37.676952   88.644058    9.944738
H   99.059219   74.766129   23.767561
H   21.015587   66.967255   65.167007
H   41.009388   84.224548   51.103527
H   58.669952   70.693207   18.643644
H   56.872433   95.536316   51.850277
H   33.500484   28.834705   97.201149
H   68.734665   12.786580   58.638527
H   56.423985   30.966021   82.415642
H   66.049423   46.223068    6.611896
H   98.360680   83.342232   41.946774
H   43.280949   35.989380   89.856339
H   73.087967   43.048386   47.182697
H   80.565102   42.047791    2.149696
H   96.662560   50.820656   84.320709
H   65.621414   61.459633   29.741739
H   97.890457    8.899160   74.976410
H   15.347920   89.825096   84.681740
H   68.715324   50.511230   24.537300
H   62.842957   84.792801   46.164539
H   30.958488   93.427063   65.313728
H   77.707649   17.852760   44.938343
H   76.254417   95.774124   38.981865
H    8.687699   71.451836   96.482170
H   80.357292   60.594284   33.310352
H   69.498741   84.819160   17.411379
H   89.037727   70.464851   50.529495
H   10.286938   67.843140   33.918743
H   41.636299   15.189448   31.419386
H   29.148613    1.460212   43.478832
H    0.405494   21.968992   94.455780
H   12.288267   60.253639   20.691368
H   89.004196   36.827332    9.653449
H   81.653580   47.357418   73.137688
H   54.134060   30.676495   97.810875
H   28.799639   33.565365   63.386265
H    7.357553   29.069464   63.383221
H   80.737709   27.003204   52.170506
H   94.349487   24.740770    5.300756
H   27.240751   43.367367   56.242828
H   30.036690   20.732124   23.183609
H   78.507919   65.035568   86.546127
H    0.631198   66.797867   97.788452
H   36.460003   64.944092   59.066807
H   87.917343    7.896146   47.764114
H   84.050461   32.709774   12.731899
H   71.753967   35.998680   81.778259
H   97.973137   52.073570   88.338654
H   11.587191   28.598480   59.801430
H   27.406002    1.748148   99.925179
H   60.782619   67.088211   47.760239
H   65.456360   60.044224    6.446206
H   34.002342   55.415688   99.378227
H    6.990821   31.214216   86.262230
H   81.263496   22.864193   59.837746
H   96.836952   40.162518   95.502922
H   79.373001   59.257454   88.941887
H   88.281586   66.013359   38.432121
H   19.552526   45.663452    0.737419
H   44.077477   51.747753   55.561478
H   53.875309   89.947395   64.813248
