200
TIME:    0.469, STEP:   469
H   16.507929   61.714993   19.255335
H   30.005371   36.221302   99.193665
H   13.338007   79.161446   56.627678
H   25.561769   79.650368   38.511402
H   12.778791   89.533218   50.366032
H   82.168823   46.599575   58.771236
H    6.677024   55.141647   54.083836
H    8.020389   98.775146   16.943802
H   96.728455   84.073112   42.132965
H    2.800000   71.691154   87.039787
H   20.175550   99.486153    0.198287
H   31.724747   48.135181   23.653614
H   16.794697   94.607903   51.906090
H   93.579849   54.173100   53.300686
H    8.565733   73.707443   42.415142
H   22.625473   16.530983   49.382992
H   94.980225   18.443701    4.313742
H   31.124304   94.175713   39.443436
H   72.644661   21.411341   45.854923
H   90.784805   76.559837   28.593548
H   60.833313   88.189735   15.348964
H   84.930901   57.567497   61.749931
H   88.147720   60.876442   43.641479
H   13.458705   90.147003   90.868011
H   13.200035   21.914049   37.239017
H   18.471529   72.499199   99.393219
H    3.330415   63.391712   58.289246
H   99.765656   79.576172    1.333835
H   20.713631   49.569160   36.997440
H   82.701164   26.898960   90.704407
H   13.062514   61.016544   16.474791
H   27.761765   68.873520   99.241119
H   21.590134   13.913104   75.976311
H   88.847496   63.827759   42.292976
H   36.998981   80.338547   32.477200
H   25.580914   44.700649   82.102417
H   92.837173   69.486366   87.674110
H   21.587782   50.678963    4.871161
H   44.594917   38.200455   49.521900
H   87.886604   38.746784   54.751068
H   80.572449   94.526299    9.125301
H   24.737597   38.304897   33.040913
H   72.578629   82.521317   58.831570
H   36.771103   74.356133   26.938450
H   36.601353   83.281929   52.627846
H   37.837208    7.878814   45.178413
H   84.289566   14.992957    1.200077
H   84.540726   65.547112   39.415176
H   95.936577   20.061932   61.331436
H   53.922478   18.834932   96.024254
H   72.760681   67.597626   18.793259
H   12.384206   39.639507   68.465141
H   58.352444   87.870148   10.923074
H   18.998377   87.016266   85.094345
H   67.505814   71.292046   83.367264
H    2.370037   66.708572   86.146912
H    4.776947   17.612038   47.198124
H   69.910568   63.902905    1.170268
H   23.349033   78.901199   12.665110
H   37.806862   94.703285   62.760933
H   49.677860   10.908554   35.545864
H   94.051781   16.967367   50.821396
H   77.756203   29.950367   77.159103
H   29.674490   65.479050    8.780392
H   75.029579   79.492966   27.293789
H   29.756714   25.457954   36.979538
H   77.621193   18.331606   90.566353
H   96.059029   91.970573   91.805359
H   24.668049    8.947854   59.081314
H   43.918755   45.621307   50.970364
H   58.364704   80.552879   79.406784
H   25.704504   17.802528   43.161835
H   84.761856   29.622097   91.827599
H   15.325832    3.931118   67.239235
H   81.933456    4.578557   56.845146
H   59.102005   10.991888   61.381054
H   94.459671   38.475323   68.906395
H   18.073355   10.139904   40.136894
H   13.271576   39.895897   29.866535
H   64.825508   89.389793   83.401459
H   53.087391   26.231716   97.733963
H   36.705818   64.472260   80.777855
H   10.106274   16.178238   83.579468
H   17.206390   69.347801    1.315225
H   30.753483    1.745421   51.292477
H   31.118933   77.761978   23.015774
H   46.118740    3.261294    2.296325
H   73.427116   10.021247   20.079569
H   72.694870   72.614632   77.995544
H   22.297138   96.311554   52.346142
H   31.643225   36.869675   79.735909
H   82.460297   90.544662    3.364577
H   58.138206   14.279402   89.207787
H   49.759102   86.206406   75.392593
H   30.927561   53.828537   77.477371
H   59.788643   32.829266   18.294548
H   82.411995    6.358530    8.191670
H    0.599343   31.997179   50.761761
H   31.828926   67.484047   53.692791
H   71.186142    1.648524   27.306314
H   20.083342   86.757996   79.723091
H   99.087822   80.121132   64.601425
H   27.926352   28.801025   33.702919
H   32.879738   68.362289   99.256187
H   25.035175   24.463299   32.511971
H   96.488968   15.561104   33.169498
H   76.506241   32.940239   55.193481
H   63.402023   43.066814    9.886556
H   78.616257   37.199024   10.205906
H   11.723029   24.867506    6.658049
H   50.207470   94.076797    0.956969
H   95.189110   69.103943   93.119629
H   53.116695   82.932045   88.954300
H   62.448448   14.460390   69.048676
H   56.208305   91.504410   18.743280
H    4.692869   99.098076   89.265175
H   23.159649   11.667259   86.849716
H   39.609272   38.268097   29.401024
H   27.559124   66.311241   72.221741
H   76.825958   51.245358   57.885357
H   42.944649   23.281185   80.015900
H    8.408195   22.055187   54.924229
H   37.757332   12.164338   30.822433
H    0.703338   59.078129    7.836930
H   70.064125    3.282134   85.239319
H   56.112072   68.617874   21.109833
H   89.694481   50.259171   62.210785
H   70.419647   89.366020   36.936649
H   95.285843   44.194405   79.671585
H   78.844719   23.063940   70.402954
H   57.853027   77.009125   12.162724
H   72.910187   88.322647   14.727368
H   91.689980   93.736191   99.078606
H   89.691750   18.874374   52.525806
H   15.738943   97.229446   45.893913
H   56.258842    1.332950   80.307892
H   69.271843   87.148064   66.738693
H   93.171638   57.070816   79.580063
H   52.298904   47.536125   71.495926
H   43.571991   98.106911   89.094437
H   61.954792   56.334347   22.307266
H   46.696106   47.968777   51.585251
H   47.643963   60.975945   91.660179
H   47.219810   18.238283   81.919197
H   51.066013   62.172295   56.556751
H   54.330730   65.921204   18.878551
H   50.147362   95.774940   45.642212
H   36.399460   64.894440   67.511131
H   71.307220   55.231174   95.667946
H   16.761736   91.174942   81.427254
H   68.148476   65.199066   49.615410
H   43.427166    0.773374   40.975986
H   86.814034   23.275898   95.425697
H   15.963483    6.399099   70.293564
H   22.693253   59.926735   64.896347
H   70.300186   44.096722   61.106266
H   61.708324   67.751167   83.467331
H   49.301846   32.985680   15.089136
H    1.900917    0.871469   94.112305
H   61.112267   47.600159   87.029144
H   56.205379   75.105911   77.327133
H   32.852261   21.869562   33.560108
H   75.076668   24.585638   37.136833
H   19.680443   26.906990   61.401112
H   56.761536   29.858728   12.074632
H   15.859155   57.152885   61.050003
H   70.956558   93.863045   54.649338
H   23.832260   41.351582   57.482166
H   97.184601   27.425495   36.316196
H   36.923420    8.731583   87.824585
H   74.990173    8.357160   35.956856
H   38.251930   56.941349   58.161335
H   42.097553   67.614395   83.980606
H   68.406067   69.060394   79.552299
H   60.794342   93.313873   88.463852
H    7.977603   48.897820   23.506447
H   33.065231   60.074780   96.487488
H    3.759568    9.419250   67.808395
H   69.745186   16.056055   66.456490
H   75.407166   56.911568   89.615448
H   77.236931   93.395691   36.394917
H   23.846645   30.385586   77.976189
H   55.091797   89.927101   10.603416
H   56.467823   25.644165   85.614952
H   88.484352   78.401939   77.453384
H    4.054463   38.156097   85.100319
H   39.325897    0.601976    4.339233
H   79.419365   76.924629   33.539410
H   99.986702   62.194603   69.160614
H   53.777859   57.027607   68.596268
H   58.759933   23.447910   77.666145
H   45.775623   91.152481   21.707552
H    9.187109   22.972017   63.051975
H   31.102734   72.670372   37.928329
H   77.036011   44.026756   21.067202
H   75.887222   10.945367   26.428961
H   10.983468   91.803658   11.196088
H   22.254230   92.854904   40.508442
H    8.859543   12.252655   67.775383
H    5.619298   27.234335   94.567268
