100
TIME:    3.119, STEP:  3119
H    6.397346   35.993065   96.290482
H   14.509563   73.853027   74.745590
H   33.367554   98.297913   86.727196
H   82.000122    4.146612   69.201477
H   67.234451   22.759106   81.136139
H   79.655403   97.829048   87.630943
H   89.503639   71.948341   34.362801
H   74.739044   58.434132   21.817410
H   76.956963   86.414185    3.756372
H   89.607521   61.167580   29.826563
H   10.133240   91.742432   39.311634
H   36.797585   80.030121   70.915291
H   44.862411   73.003494   15.126009
H    0.646743   95.462227   94.596672
H   18.439404   91.425919    0.843907
H   76.115982   38.930023   74.137062
H   73.295692   88.268478   57.323223
H   67.795250   43.023766   91.413269
H   93.846718    9.197818   27.683466
H    8.489250   39.579685   28.688623
H   79.190842   45.711517   72.586044
H   61.401917   48.224503   53.666611
H   44.100883   69.255592   43.112762
H   29.252640   74.089203   75.430138
H   18.030903   38.807327   59.574318
H   32.357540   34.673832   96.827751
H   93.123840   12.823289   61.859631
H   69.368889    2.024083   69.871178
H   78.990234   32.071701    9.735861
H   20.589607   13.644975   31.339661
H   38.807423    1.742830   62.613594
H   62.692757   66.334175   10.522575
H   90.055511   40.280998   78.781105
H    9.886022   87.885078   40.351837
H    3.240592   23.147797   14.654373
H   43.739468   29.498323    9.918401
H   78.951302   90.310532   54.230282
H   35.077309    1.867769   42.540157
H   13.417575   13.459730   42.057678
H   69.417694   20.192675   83.431007
H   22.090059   63.201473   15.828000
H   51.303215   51.841942   49.334137
H   38.106609   82.203659   26.762589
H   80.190109   65.047058   85.693077
H   86.105278    8.832756   23.012350
H   37.848225   22.406940   95.833321
H   66.101852   94.458954   55.401505
H   56.405987   27.496313   61.563972
H   56.198982   74.133354   20.055372
H   91.295280   78.215446   65.516266
H   43.306660   68.524155   86.303070
H   56.710026   74.319901   69.306450
H   73.576836   40.093750   21.722256
H    4.466969   56.320251   69.449432
H   92.453476   31.925339   26.876242
H   97.468796    9.253973   86.448685
H   93.983421   99.549019   52.630333
H   93.809319   82.336380   33.218460
H   36.265434   70.554016   72.036781
H   53.195984   67.525742   74.898811
H   56.449745   33.524235   71.213181
H   88.215202   98.910873   54.231094
H   85.809486   94.447807   19.591293
H   57.216583   58.761086   42.460918
H   56.122334   11.734246   86.027748
H    9.740070   87.218178   30.603516
H   37.325722   56.192608   17.647650
H   64.915092   95.915527   15.308837
H   12.351717   25.674873   64.615822
H   93.576721    5.018617   95.165405
H   22.990273   83.182762   24.734432
H   16.791632   48.011642   84.980591
H    3.626437   64.025902   81.776604
H   61.553066   52.003738   17.837105
H   12.551671   33.084568   37.839756
H   99.390266    7.470881   86.060303
H   50.140385   56.213318   46.210682
H   78.516617   46.777294   86.690491
H   11.081155   44.357243   52.481300
H   46.563759   39.086460   52.216537
H   71.915604   61.549145   66.404083
H   75.346893   64.597000   25.968939
H   15.137850   59.318512   26.969120
H   64.731110   79.058441   78.544037
H    0.459281   53.790272   45.400307
H   79.508423   23.619675   58.376049
H   75.465675   76.576210   72.269241
H    6.163443   55.579666   63.305847
H   20.411308   20.511263    2.682291
H   90.576874   80.951614   35.714607
H   51.664948   41.848507   99.329300
H    9.066187   30.072298   92.955605
H   85.388626   21.102057   60.201500
H   48.691517    2.422540   37.116882
H    2.663548   70.349335   87.758751
H   51.538208   72.565498    6.348505
H   15.030990   46.673504   57.813118
H   18.315825   42.794098    6.129690
H   60.131462   50.295078   83.787849
H   32.943935   98.596596   97.276031
