100
TIME:    2.760, STEP:  2760
H   30.674301   68.915276   96.619156
H   24.495888   54.388680   52.099934
H   27.196692   72.469589   90.939705
H   81.939865   18.938326   88.878113
H   70.449982   93.983688   90.870377
H   85.220955   98.217979   52.078419
H    8.319475   47.706772    6.288515
H    2.955742   27.377146   54.780704
H   85.781868   20.930771   26.354473
H   99.418449   56.012871   15.767520
H   43.526550   77.297195   73.891693
H   50.500565   62.035202   96.469719
H   67.697502   94.723389   50.806976
H   18.421959   96.568764   67.278358
H   14.072144   23.492826   18.101164
H   90.550262   70.329376    3.937003
H    2.164284   64.521759   24.642038
H   60.124802   60.481850    3.859497
H   88.253777   94.137558    8.770998
H   18.160492   47.202190    4.246263
H    0.494406   81.450775   82.331238
H   26.984238   47.747925   84.238800
H   48.894051   72.175316   53.383835
H   62.607605   69.783569    2.091282
H   30.869743   67.279053   56.925339
H   34.003651   45.369442   30.477011
H   24.080566   27.746618   54.735615
H   99.661705   85.267189   58.004650
H   71.184219   99.501106   26.705042
H    6.824544   22.530319    2.801089
H   24.677877   69.549286   91.016533
H   40.025185   76.254662   43.757027
H   64.769501   66.547554   46.439552
H   94.717247   20.785110   55.476334
H   12.164952   50.285339   92.793877
H   12.525510    1.296632   11.152299
H   44.518738    3.457826   25.942381
H   49.914215    8.438198   17.207584
H   28.572083   21.280809   76.847855
H    3.232653   53.801880   55.186069
H   46.624706   50.884403    7.370491
H   83.568077   35.728683   32.467667
H   35.014332   80.050842    0.831817
H    3.115003   59.030052   50.591705
H   17.246408   22.996227   92.291237
H   42.479794   15.559559   94.376198
H   63.296482   74.935699   51.953163
H   56.386814   23.800097   39.351067
H   45.706055    3.867091   34.376213
H   83.768639   72.753975   90.626984
H   43.334049    3.182970   82.517838
H   39.262897    7.631435   92.872398
H   66.132362   38.012146   42.573227
H   12.779690   62.178871   53.607330
H   21.036377    0.460991   23.825026
H   97.019608    9.631323   98.669891
H   71.222725    9.908326   18.486549
H   20.541107   16.239552   42.465164
H    7.952880   55.385693   99.596123
H   76.886673   39.931141   85.109627
H   33.804085   50.218151   99.205276
H    0.956707    2.252844   70.474731
H   61.443020   18.941935   44.211594
H   32.563271   56.808212   52.208851
H   41.871563   40.407475   52.595161
H   31.793922    5.065128    9.377789
H   66.128548   43.782413    0.314305
H   89.713570   75.384338   98.146561
H   94.459343   51.470329   87.130013
H   86.302063   86.962959   95.921356
H   34.390877    7.608983   29.041435
H   46.392197   59.926086   58.697052
H   27.034834   81.785271   90.979485
H   69.453056   74.722061   39.173546
H   95.242821   32.572384   10.624447
H   90.904991   84.463127   10.217087
H   17.544718   87.328506   39.861790
H   61.650143   70.252129   66.865952
H   93.865540   45.411739   48.474213
H   64.169746   58.639843   83.144791
H   64.892929   57.835125   44.947132
H   48.410446   62.252457   55.988136
H   92.425064   53.325684   92.776337
H   40.033894   48.338348   11.334259
H   17.940151   76.245453   80.201439
H   87.769104   10.432987   33.446102
H   51.488884    2.678443   55.150787
H    0.385623   84.322235   67.041267
H   12.960266   40.499352    5.619475
H   22.317150   95.720047   22.881641
H   36.973206   22.464264   91.747879
H   82.503128    3.074764   86.113701
H   62.370914   10.333147   32.436867
H   13.991766   80.647697   12.911679
H    8.871090    2.504827   79.509026
H   21.886307   86.742317   24.891571
H   43.526260   26.071102   78.459343
H   16.998388   39.737427   11.873959
H   77.233482   48.747570   13.858528
H   10.646622    7.810331   31.858545
