100
TIME:    4.639, STEP:  4639
H    3.606188   96.601479   94.898880
H   72.357582   56.245720   70.610657
H   59.494873    7.652548   68.891502
H   82.255249   41.524162   85.883797
H   53.619949   44.593811   39.921539
H   56.087055   96.182320   38.161854
H    9.840946   74.585846   53.228848
H   55.270042   89.934631   82.256493
H   39.592461   40.272522    8.077860
H   48.068214   82.992531   89.347382
H   68.746552   52.902714   92.897644
H   78.783669   56.219704   62.719902
H   48.042892   81.060417   64.067627
H   25.384827   90.777168   10.269343
H   36.928764   55.653107   27.779324
H   14.999866    5.985125   47.963806
H   51.066383   88.804749   95.694817
H    0.269995   69.098366   38.714306
H   17.522381   72.966324    7.763861
H   67.532188    7.301687   32.177284
H   88.991890   94.389740   31.334148
H    7.125793   50.242325   24.224548
H   23.806694   56.893532   99.622009
H   88.028107   92.319183   62.541656
H   63.666779   18.263298   70.799904
H   25.399141   89.515152   54.187130
H   62.053726   49.640324   92.011818
H   41.116390   72.972549   20.111712
H   12.041743   69.978386   37.883492
H   78.873383   76.024315   52.175575
H   98.627983   38.043682   42.356026
H   58.666485   24.341957   69.808586
H   97.121681   29.070566   15.714711
H   74.110153   48.586029   76.317726
H   65.458282    8.247293    7.211998
H   75.898102   48.775242    4.843012
H   24.739801   34.646469   74.000412
H   72.252251   74.058220   49.802067
H   49.260120   80.341972   94.759048
H   26.251825   77.896034    3.020781
H   18.208900   15.359929   51.638531
H   14.693964   20.058321   20.745035
H   51.199261   91.318649   36.553810
H   83.127716   90.513367   34.311989
H   54.256115   48.858978   53.082539
H   18.238239   51.398640    2.005898
H   77.976852   77.122215   69.996956
H   56.487164   43.150162   55.612953
H    0.635277   48.247089   59.424416
H   23.171375    1.339896   59.205338
H   43.190693   21.778122    2.329264
H   30.578474   33.274525   69.521271
H    5.098155   48.907227   33.442860
H   69.260918   31.514954   36.521873
H   71.430817   65.139656   39.804241
H   99.370651    7.653945   34.704300
H   90.344604   55.690376   97.194847
H   80.626114   38.791634   94.064438
H   56.143806   34.778763   55.345352
H   52.891682   84.357040   31.666389
H   52.332550   62.835178   52.702103
H   34.267448   84.762924   85.454178
H   89.002159   90.725754   15.360313
H   61.592606   67.033768    1.188335
H   16.451536   90.334778   27.579260
H   16.364147   11.654366   20.477209
H   15.372789    8.745807   91.032578
H   59.918312   82.846268   87.973625
H   88.108994   16.457367   69.283783
H   24.372824   81.471191   91.964722
H   74.723091   79.762222    6.498773
H   91.460541   97.565384   96.267357
H    4.519470   88.842903   42.805450
H   28.086254   55.815426   27.519707
H   85.835945   35.253147   53.065884
H   35.327133    4.888630   83.783401
H   88.146133   24.468330   73.091789
H   49.928982   47.388126   70.635643
H   83.969658   39.892521   69.443520
H   72.019836   56.305019   21.267113
H    1.650036   77.274246   57.250912
H   89.394768   74.523758   98.866722
H   11.300875   84.699768   71.739456
H   69.304642    9.128084   39.715698
H   26.448812   58.713943   98.053490
H   44.526379   79.453606   63.929443
H   76.983040   66.059830   44.749008
H   30.626638   33.884514   47.499573
H   51.956406   35.879585   90.249763
H   56.189404   18.413864   90.050613
H   13.869712   23.924877   31.428995
H   21.537336   44.376732   21.920736
H   82.822472   66.712486   77.745529
H   95.604263   94.622101   39.602512
H   76.385002   34.196396   22.685509
H   77.083954   12.542797   27.838753
H   94.380669   33.903194   70.395752
H   23.893827   55.735992   81.802025
H   87.721954   56.847202   56.472984
H   27.357294   59.586681   50.851192
