200
TIME:    0.274, STEP:   274
H   10.515918   62.362156   15.920956
H   28.267328   33.374527   91.277443
H   17.425056   70.626328   47.022881
H   18.988598   77.371162   43.610603
H   14.849156   84.590973   53.169662
H   88.512512   51.892181   64.542961
H    3.851824   55.280006   50.309460
H    3.650548   90.354584   23.865475
H   88.809258   86.996506   46.889988
H    9.664333   74.422630   94.731361
H   13.378775   95.320503   94.036102
H   30.918396   42.930351   14.362323
H   12.008662   88.136269   59.898186
H    2.796574   53.350384   43.904171
H   17.980326   72.206322   42.894936
H   28.309353   24.565479   53.589554
H   85.806870    9.310886   13.781296
H   35.754799   84.801514   42.915058
H   66.156662   28.471001   42.984344
H   90.164421   79.237755   36.152714
H   58.493111   78.455505   24.282780
H   89.272102   50.113960   69.264465
H   93.987068   62.294250   48.320396
H    9.328389   88.369164   91.479469
H    4.724276   14.071424   44.197140
H   18.632948   63.845074    5.833609
H   99.554115   59.478977   50.448898
H   95.290558   71.532005    0.820734
H   12.500607   55.496284   38.139275
H   91.513000   21.675161   97.449783
H   13.317102   52.869724   16.236382
H   31.307774   64.303207   94.440208
H   26.301781    9.717142   73.594452
H   95.301277   63.615013   38.884583
H   46.356815   88.396103   33.960468
H   31.950638   49.146736   79.866356
H   87.240326   73.695160   86.210182
H   31.233120   45.634808   13.638737
H   51.811905   45.183125   45.187393
H   89.756683   39.548672   62.368256
H   80.514427    3.635550    2.652814
H   15.031633   42.393929   38.822983
H   76.089676   87.000877   51.590778
H   37.205521   64.885231   19.964334
H   29.938662   77.332489   45.590874
H   40.581329   12.953653   43.057652
H   80.614868   24.546448   96.924522
H   89.288078   65.550087   46.425369
H   88.395264   27.461910   61.190845
H   60.900684   17.954939    4.273976
H   77.399429   70.065773   26.521282
H   19.838396   36.283184   64.272713
H   53.093613   93.449226    8.373033
H   21.900570   82.901199   82.206657
H   75.759750   75.628784   89.673759
H    4.869799   71.512459   79.761566
H    5.333452   16.874123   49.289875
H   67.780136   59.369785    4.689782
H   27.463728   75.134262    7.948814
H   42.316921   95.798256   66.365707
H   50.309402   14.713057   41.243134
H   90.547577   16.505426   49.326748
H   72.384003   25.910803   83.737854
H   24.949825   65.200844    4.426620
H   71.894928   76.585938   19.319918
H   37.405998   17.882051   33.474442
H   84.905128   22.444813   86.537575
H   97.151024   91.527229   87.944695
H   17.731871    6.312709   61.549461
H   45.041248   42.222584   50.980778
H   58.450249   77.180191   74.190796
H   31.184937   22.928137   44.526829
H   78.572891   26.250896   98.357254
H    8.973031    8.217362   61.562366
H   79.559036    1.421961   66.014038
H   54.173149   17.876232   62.655296
H   95.283875   31.215937   71.664650
H   25.295921    6.589060   46.804909
H   11.789051   31.208254   34.185421
H   67.763779   90.477325   92.649200
H   44.811138   29.527414    0.628944
H   28.131443   67.978844   86.806145
H   10.867063   14.039252   89.284920
H   23.565329   62.971382   94.959686
H   37.697472   99.683380   56.818657
H   25.625111   84.584717   27.075050
H   37.379059    2.854958    1.849269
H   75.048744   17.278929   12.724595
H   66.727859   72.135231   77.290062
H   23.273834   87.571129   54.491451
H   39.817551   35.186306   80.603256
H   83.818596   88.833771   99.109726
H   48.874844   16.478642   94.761490
H   58.503246   93.212135   70.038246
H   25.986431   56.466286   69.355843
H   67.864052   28.469467   27.463068
H   79.766808   13.103186   99.793533
H    5.960012   28.967041   48.915485
H   36.247490   69.437439   53.001740
H   67.795601   98.479904   27.258707
H   11.383183   81.366455   70.540810
H   91.836617   77.170959   65.677055
H   23.884184   35.927429   30.977997
H   23.509665   68.002258   91.512543
H   25.293669   27.025917   26.189854
H   88.769127   25.108252   42.298965
H   67.268913   30.518953   56.100998
H   64.550941   35.579803   17.426905
H   73.660622   39.660477    0.776664
H    5.458934   27.586336    5.703669
H   47.641876   95.771324    0.819772
H   87.359177   64.200378   90.898445
H   56.503517   80.669205   93.195824
H   63.109001   18.664349   74.077209
H   62.715645   83.384369   25.580524
H   12.650933    4.802645   80.468216
H   31.177036    8.921464   84.576462
H   40.598614   28.669994   33.298882
H   20.153566   58.990116   81.859268
H   71.679893   47.353451   50.611092
H   40.909431   21.985371   86.405708
H   16.822063   26.674595   49.188278
H   33.056099   20.388607   25.037760
H    3.576372   66.095238   16.376316
H   75.899010    8.110280   91.688637
H   48.967983   63.282764   24.874910
H   94.541512   49.348679   69.741684
H   74.684975   87.836632   35.289730
H   92.886131   51.252949   84.115440
H   69.393158   23.988194   67.080849
H   49.981438   83.971710    4.710674
H   80.394966   86.388596   10.128789
H   92.326729   84.248924   97.628067
H   99.253403   13.874701   50.125633
H    6.105711    0.755356   54.854523
H   61.452515    1.583215   83.180702
H   68.949005   86.651161   57.031242
H   91.508354   63.159359   82.661156
H   47.201935   44.809113   71.542046
H   43.466362    7.459249   94.512756
H   52.300900   62.068810   16.008209
H   55.673080   42.043884   47.039486
H   53.912521   57.386791   98.237442
H   56.155128   25.296909   78.687843
H   41.900097   68.639465   50.180332
H   47.185898   62.561584   28.217789
H   45.535393   96.628899   47.038448
H   41.724052   72.153084   68.629906
H   66.094208   63.372787   97.606461
H   10.545784   89.045998   88.724579
H   75.021797   61.887371   51.087521
H   35.218605    6.168941   47.086845
H   77.755234   30.567272    2.270978
H   10.808678    1.923164   75.112328
H   14.960766   54.776951   61.368378
H   64.511421   43.613209   55.106987
H   59.667156   61.903156   81.158371
H   46.529457   36.114380   10.520683
H   10.825699    1.606221    1.344073
H   63.298489   55.556549   79.545853
H   54.289925   83.028084   82.511879
H   42.007763   22.880104   35.249428
H   66.682884   33.087608   37.217915
H   12.522682   21.178478   69.744080
H   58.628639   23.242041   10.158619
H   12.499484   63.357471   62.115963
H   74.314369   97.017036   52.582134
H   23.661915   32.479492   49.418659
H   94.534950   28.059641   36.776649
H   28.024551   10.203135   90.020477
H   78.715454    6.038158   35.973221
H   44.988380   64.184357   57.562523
H   38.329872   75.993301   89.467361
H   70.806175   73.729248   75.031509
H   69.857605   94.780777   97.632744
H    1.957108   47.844505   23.319365
H   35.068462   53.983261   88.330254
H    2.031335    9.233284   65.314957
H   74.732063   20.589174   68.737183
H   84.683174   54.819817   86.864632
H   80.797073   86.407814   40.928780
H   19.913454   30.147549   70.857391
H   64.069931   90.130478    6.742960
H   52.221245   25.283308   78.441109
H   85.962646   86.859695   78.256760
H   99.972221   36.510666   84.124367
H   32.535889    3.942168    0.018448
H   88.787613   68.664742   26.716217
H    5.633762   61.325024   66.931992
H   50.231850   58.088360   66.132584
H   49.444500   29.899460   79.058662
H   47.374191   85.853180   24.191320
H    4.855696   18.332897   58.585060
H   34.509541   64.888046   33.998486
H   83.727829   52.736683   21.705067
H   75.411148   10.466875   29.100555
H    9.687282   86.486504    4.614362
H   27.921373   96.730446   46.007843
H   11.459912   11.707029   76.496468
H    7.653121   33.840878   97.276428
