100
TIME:    8.256, STEP:  8256
H   59.002434   64.906578   91.587418
H   72.466019   52.245708   98.671829
H   21.683992   67.873672   26.426987
H   82.862350   92.502434   87.623238
H   21.218218   34.512058   41.850494
H   99.987305   92.263756   96.365120
H   20.273594   18.822069   36.083118
H   70.980972    2.851570   50.155884
H   50.679634   92.511841   80.401871
H   49.259254   34.928928   30.976410
H   32.302017   98.440872   44.489616
H   40.733459   37.521069    5.258363
H   17.292152   62.260216    4.648857
H   46.293144   79.628578   85.525230
H   80.883369   32.566208   53.868828
H   69.567291   89.628929   47.720978
H   60.208626   28.041157   24.964605
H   77.614243   93.102165   13.333014
H   73.853210   24.702267   98.321228
H   70.082932   30.488859   78.439491
H   74.353981   34.306561   33.162380
H   53.891102   55.043945   16.203583
H   75.512703   27.478830   96.135605
H   51.956985   35.593964   93.911270
H   34.301582   31.418236   97.512367
H    8.679684   82.716599   13.955654
H   50.155312   99.283768   63.783535
H   35.924530   41.801868   39.672020
H   90.689323   98.141220   66.906517
H   17.565025   86.503220   39.716522
H   40.981297   62.386223   56.190636
H   87.046257   24.407818   34.964775
H   51.899097   64.434090   41.562637
H   26.938034   17.109444   23.938749
H   75.486610   34.574944   27.353743
H   90.317947   32.074951   93.470711
H   71.656151    2.181609   59.005825
H   22.757072    7.861609    5.045217
H   96.582390    1.534497   44.244347
H   85.570358   39.284271   87.599609
H   71.012497   39.465172   36.852261
H    4.443151   73.979065    1.444659
H   82.338348   13.013107   97.813576
H   52.169636   51.220551   87.963165
H   40.508865    6.154712   62.599419
H   71.554100   20.383682   16.702200
H    6.238466   73.827339    4.715121
H   56.691525   80.404114   79.412056
H    6.363533   48.687576   15.138237
H   99.076904   56.395039    6.272394
H   42.934696   72.579903   40.458008
H    6.369927   97.643005   32.082062
H   80.123573   69.879822   23.376547
H   85.502014   72.502853   96.131607
H   83.439644   82.121490   70.567352
H    3.878597    3.849213   11.573074
H   19.647018   51.323128   41.201820
H   11.297252   97.209572    0.898417
H   41.408077   87.613762   77.673523
H   14.208734   62.372959   28.790306
H   80.495224   94.629761   70.692421
H    5.896370   51.096390   21.796234
H   34.560169   43.908722   67.331757
H    9.964096   86.736969    2.986734
H   60.019730    1.450478   64.414291
H   94.169930   31.843010   34.343510
H   25.174417   33.794079   65.661850
H   10.067425   89.706352   60.887146
H   68.381531   56.562828   42.431335
H   97.699806   63.319942   84.332764
H   59.866459   33.662811   63.116951
H   93.406097   77.468163   61.206394
H   68.684464    9.936701   50.067562
H   48.460033   26.897964   12.610315
H   60.170837   40.471729   27.276999
H   20.832987   36.704872   40.405212
H   16.603676   11.222099   37.163101
H   19.860117   10.884274   70.390564
H   57.416824   29.268246    9.793230
H   94.643822   59.276115    9.659420
H   72.440071   14.694467   73.432770
H   60.818848   98.011917   96.307442
H   40.084877   45.187656   16.202404
H   18.149387   18.642935    9.359797
H   50.331924   32.458279   47.426353
H   61.282955   12.309691   15.105079
H   18.554430    3.073747   17.221260
H   88.808220   44.421043    9.976120
H   27.020817   34.490837   60.667366
H   36.397396   69.603531   19.349611
H   61.892231   19.231808    7.813734
H   89.159294   16.409634   90.837791
H   14.678877   75.239616   57.453735
H   45.175972   14.054799   83.488213
H   13.849548   10.206825    5.801180
H   75.833328   69.711609   41.015907
H    7.280176   41.473503   62.378593
H   22.341326   94.967125   13.141504
H   15.416032   72.453606   53.511654
H   52.022205   66.768600    2.412833
