100
TIME:    6.452, STEP:  6452
H   81.000076   30.340883   93.239029
H   22.286751   54.489574   84.924965
H   90.670410   38.086220   47.607090
H   82.559555   66.827911   86.506836
H   37.381073   89.913681   90.765717
H   27.966412   94.218163   17.709095
H   14.821359   97.006752   95.007881
H   12.771820   46.781368   15.792100
H   95.025398   65.959885   93.956062
H   98.532326    9.025229   60.339634
H    0.105714   25.852560   18.260548
H    9.584663   47.095951   33.668114
H   32.351303   71.425224   83.918388
H   35.615913   85.189003   48.240826
H   58.971992   93.708397   40.625576
H   42.103455   47.413551   97.468262
H    5.275603    8.721282   60.739357
H   39.040211   80.884827   75.864784
H   45.757229   49.023903    3.279709
H   18.690071   68.794472   55.614769
H   81.405899   13.899906   82.123985
H   80.939865   52.649109   69.830887
H   99.598701   42.148521   47.751663
H   19.573788   14.012911   27.891474
H   98.824532   74.484604   84.189369
H   17.134466   35.922379   83.699898
H    5.715336   74.276321   27.984861
H   88.140793   57.597252   80.042465
H   51.463554   34.467571   52.182281
H   48.391041   31.153008   96.304520
H   69.983955    0.619438   98.917305
H   73.140503   74.248016    1.970117
H   24.826962   96.423790   79.044067
H   50.714455   82.435471   99.939667
H   20.383850   71.163124   17.595331
H   33.498592   90.776772   99.141243
H   98.630135   68.249146   16.857519
H   97.320564   40.879223   77.740791
H   72.732666   40.837517   19.065519
H   55.486500    8.168282   45.664707
H   94.303604   77.565865   94.352028
H   56.474579   66.904663    9.346402
H   66.813202    2.191468   67.507774
H   67.360367   20.939352   11.578446
H   96.992821   77.328110    8.225081
H   94.841820   85.978867    9.373175
H   92.140915   75.719498   87.397728
H   56.583988   61.823486   67.791122
H   53.626251   98.096107   87.101212
H   61.200970   28.936232   32.407707
H   43.058567   46.744781   21.440773
H   18.690311   65.042953   50.502602
H   42.706745   59.419617   28.146200
H   27.278786    1.929753   16.525280
H   27.077423   24.027103   55.227024
H    1.631717    5.746845   72.985489
H    5.281585    3.376579   69.626320
H   45.626129   67.575722   47.367294
H   99.133209   11.382606   16.163048
H   33.253296   23.710079   80.100365
H   66.697746   78.523087   11.347927
H   69.923836   67.887772    3.420095
H   12.086298   67.010170   91.037445
H   86.087143   76.909882   51.970036
H   88.413727   45.533985   96.415276
H    4.990807   21.524895   27.676435
H   69.912399   71.422821   78.564468
H   34.682106   86.533669   74.645508
H   78.469521   86.186768   55.575634
H   61.098465   72.660088   88.147064
H   17.152138   56.407181   84.753059
H   41.970074   37.395782   29.006680
H   86.308395   99.165497   96.316956
H   88.175896   41.072063   19.797499
H   73.246696   37.839748   90.503067
H   78.188210   21.085041   61.790413
H   52.762295   67.364647    5.168749
H   35.107021   28.839426   70.760719
H   70.908531   34.567165   89.666039
H   83.113144   57.548805   65.075615
H   37.128258   96.030563   65.609955
H   25.450220   86.313004   47.229809
H   25.978287   15.018336   44.399689
H   94.037132   64.270775   74.126030
H   38.170830   45.309464   22.303223
H    2.795172   46.047539   89.829559
H   98.069206   34.239830   31.199713
H   59.794914   88.778320   28.680618
H   89.579697   34.934654   75.421761
H   95.894852   43.824062   54.858856
H   88.065056   21.821686   69.716232
H   55.681561   80.731583   56.459770
H   99.039246   21.110912   17.947641
H   70.827278    4.608475   61.847443
H   45.041481   71.799423   64.346222
H   26.830368   40.948639   34.194901
H   50.472740   37.946594   66.128906
H   25.823473    5.704544   49.356667
H    1.354824   64.663506    4.613739
H   39.969250   13.066540   76.199303
