100
TIME:    3.011, STEP:  3011
H   13.700829   45.897240   96.389359
H   17.513878   67.997864   67.932968
H   31.511137   90.527832   87.994469
H   81.981995    8.596487   75.120911
H   68.201797   14.102429   84.064545
H   81.329720   97.946053   76.935753
H   95.164345   64.656166   25.917061
H   83.227631   49.091084   31.733944
H   79.611809   96.797913   10.554781
H   92.558998   59.616859   25.597101
H   20.179138   87.396790   49.714314
H   40.919930   74.616608   78.602974
H   51.731888   79.537613   25.860321
H    5.994138   95.795113   86.378349
H   17.125576    1.072976    6.035488
H   80.458328   48.376068   83.101906
H   81.980385   81.124619   47.491558
H   65.488121   48.275780   95.157410
H   92.164162    4.666857   21.993921
H   11.398705   41.872807   21.335474
H   85.599716   56.463562   75.517746
H   51.047852   48.081131   62.863815
H   45.542839   70.133949   46.202667
H   39.287003   72.793915   83.450706
H   21.893284   47.372543   58.777122
H   32.852749   37.891453    6.950722
H    2.436518   17.312860   59.716473
H   78.482048   96.983025   66.301720
H   76.641907   22.273405   14.840796
H   16.448723   16.318130   22.754257
H   34.556538   92.057938   71.158211
H   55.873543   69.318611   20.520683
H   82.448578   48.182915   69.051613
H    5.322644   97.782661   44.901825
H    5.925395   31.311737    8.078232
H   34.349453   21.014269   10.289601
H   68.592293   94.265610   45.720272
H   39.540779    3.844383   34.919216
H   17.976509   15.812590   52.523804
H   79.590485   30.303255   74.934181
H   29.470812   59.496059   13.283772
H   61.009636   46.994499   44.260101
H   37.176342   81.556015   18.961609
H   87.086777   63.237259   75.133018
H   95.473869   13.093735   13.770240
H   39.241566   20.347004   95.394966
H   65.258102   88.585663   54.364120
H   56.400219   26.384359   54.881538
H   53.042336   83.078423   24.363523
H   89.030998   76.572441   73.070465
H   43.314899   78.950729   85.164337
H   51.461308   84.341080   76.395927
H   71.337273   39.467529   27.994762
H    6.967731   58.082733   64.683563
H    1.052461   22.460342   25.957922
H   97.333664    9.367535   90.125259
H   87.136192    2.665423   42.358665
H    1.851272   92.535538   36.000198
H   27.748009   65.990845   80.327614
H   60.322540   59.224545   77.970589
H   49.637123   38.546360   79.634201
H   92.048332   99.916122   59.118088
H   78.477760    1.817493   26.997177
H   49.799988   58.173592   45.393444
H   51.835194   20.360126   75.970314
H   16.374519   92.587196   24.218124
H   45.990639   52.459179   12.433127
H   72.375359   89.739014   10.145812
H    6.968877   33.435066   71.388893
H   91.388245   99.586494   95.392822
H   26.420067   90.530968   26.030132
H   25.696737   51.595932   77.073730
H   10.668474   69.368553   84.545158
H   63.930233   58.838608   24.255867
H    7.344757   32.930485   29.652626
H   96.837593    0.548980   93.327759
H   40.334263   65.574356   44.300709
H   73.442581   53.839581   80.726562
H    5.902310   44.674473   51.275826
H   51.860268   44.968815   61.520859
H   69.802933   60.431835   59.949070
H   67.243927   63.891678   34.999977
H    8.304834   57.515656   16.682621
H   57.301250   69.816742   88.408661
H    5.718163   60.546040   55.869728
H   81.993530   19.652649   50.876232
H   68.252602   84.428688   67.119400
H    4.425268   64.226456   64.429237
H   18.169685   26.524218    3.565901
H    0.125100   85.394485   31.854271
H   47.245148   36.017239   97.048538
H    1.074664   21.950380   90.897316
H   78.465591   17.861364   51.849693
H   38.252583   95.871773   29.835297
H    4.530984   80.022797   85.276939
H   42.617859   76.830391   11.927019
H   23.603233   40.475567   64.024239
H   17.919493   41.874542    7.857771
H   65.276360   49.829533   92.833443
H   26.235956    1.368084    7.679986
