100
TIME:    8.971, STEP:  8971
H   10.650216   99.338356   90.932816
H   52.718857   90.988892   43.755535
H   33.974148   19.313484   18.034443
H   82.982361   63.045341   48.432228
H   14.811300   91.822464   22.464706
H   88.902710   91.489143   67.174957
H   82.799538   67.104073   91.997047
H   14.783386   64.706314   84.506371
H   33.103569   23.767387   35.394512
H   29.729975   45.195271   58.971657
H   65.794464   27.208965   75.616768
H   13.442009   73.360527   54.363274
H   71.698730   18.985565   33.594345
H   10.891513   77.424751   39.937550
H   89.567757   68.698891   19.485855
H   40.819351   27.092613   88.369202
H    2.712485   75.332008   90.053871
H   92.903488   58.310066   88.547440
H   84.992355   54.699406   35.988476
H   50.819546   15.304819   27.119959
H   31.924858   63.126854   13.756319
H   22.438852   55.993118   55.314758
H   65.966423   21.666510   75.679291
H   85.522812   44.147430   40.809750
H    8.730557   74.715759    2.791498
H    5.307291   61.638412   46.671276
H   88.499672   69.564835   77.966660
H   75.594208   75.175659   63.308609
H    6.236477   63.011257   33.107231
H   44.980507   68.807144   96.557800
H   69.122734   26.502960   99.622131
H   32.191608    4.654533   68.773674
H    2.261305   12.121513    5.975483
H   57.148376   51.584045   93.818169
H   57.692345   80.439430   70.856644
H   52.471012   88.079269   91.223244
H   40.234619   75.997322   15.344886
H   93.204597   94.777916   55.498711
H   66.405235   85.955223   74.955963
H   18.225866   72.348991   43.854446
H   22.147005   63.996384   53.697353
H   44.186935   76.782944   37.946362
H   88.491608   17.302528   49.456882
H    6.516620   63.227043   57.870174
H   78.487564   77.951180   23.784338
H   62.325203   34.018902   19.606997
H   11.828521   12.711622   11.581400
H   56.735165   87.768387   23.651783
H   27.261757   89.472328   86.617279
H   14.085266   67.279442   56.281345
H   42.885601    3.550991   47.996841
H   41.120052   31.296429   85.145607
H   94.950310   74.025635   81.851425
H   68.940582   60.838547   27.681046
H   26.510822   44.780663   76.644241
H    4.769129    3.097102   87.232773
H   64.972870   30.692253    9.204230
H   58.056580   29.687277   82.482201
H   97.802040   17.825430   22.781504
H   67.024071   17.328602    8.454002
H   25.598375   61.376408   14.946922
H   80.519585   44.441269   89.445503
H   83.102219   95.117699   18.302063
H   59.063480   90.631851   83.577057
H   88.397491   44.345348   30.999247
H   50.246132   96.298729   76.619896
H   67.808334   58.510761    0.181208
H   60.677429   30.599098   95.068283
H    4.014208    5.187477   97.586395
H   12.221343   99.235672   82.816269
H   37.157223   85.012627   54.541664
H   34.527374   53.727928   13.616929
H   22.065887   74.567284   31.733250
H   32.722309   81.644875   70.127327
H   94.613815   41.524548   81.488953
H   37.738083   82.530266   92.295090
H   81.540848   49.338184   49.846016
H   53.447643   64.134773    9.883658
H   91.706017   27.168064   17.772860
H   59.578972   20.326475   48.061516
H   86.437645   22.091471   16.167854
H   14.473076    2.651406   36.490234
H   85.309853   57.145054   84.295753
H   67.338417   79.827003   44.054668
H   15.518005   87.730637   78.115860
H   44.825169   38.573555   64.756668
H   66.307655   51.087379   51.315117
H    0.307373   87.206398    2.562629
H   41.859379   94.681801   54.819588
H   73.182571   40.185661   44.907715
H   91.152946   57.836964   22.913231
H   42.062054   70.184402    4.462768
H   60.511890   96.688744   12.745784
H   14.278002   57.433094   31.698286
H    1.486104   46.162617   22.229811
H   34.889435   41.476440    4.085001
H   50.526360   82.506142   21.257961
H   20.961206   30.345901   98.786400
H   81.355370   75.541145   93.621620
H   96.435486   48.422558   33.535213
