100
TIME:    7.412, STEP:  7412
H   16.079100   42.304787   92.360123
H   95.775955    6.508315   45.455959
H    7.176409    7.153246   36.335117
H   82.720688   27.276691   33.885456
H   28.781069   66.861824   64.735443
H   13.076634   93.178123   12.780983
H   64.505447   61.832729   70.081207
H   37.317711   29.834148   27.648445
H   71.426765   73.659775   33.527561
H   72.311623   22.810335   97.927528
H   10.808838   64.480484   25.788481
H   72.947037   95.216064   65.334785
H   71.111061   13.347408   88.522453
H   88.083611   82.230019   21.296276
H   70.632149    7.956444   94.459991
H    3.502218   63.448364   17.780107
H   28.078255   72.216095   48.131954
H   59.569996   34.170959   42.588249
H   60.705959   89.295181   53.853519
H   92.826218   48.409451   20.975992
H   24.438126   18.328987   56.066647
H   72.975998   53.923523   88.078033
H   86.781319   34.340904   20.284281
H   30.375929   25.497286   56.595016
H   64.488594   98.350510   91.279213
H   12.659115    7.596703   93.380226
H   22.933512   34.368538   47.035152
H    7.139152    2.406807   11.773017
H   72.337578   21.566591    6.803433
H   85.202560    7.392578   72.621422
H    7.763366   86.703979   22.965157
H   33.755367   47.724194   13.098061
H   92.448006   26.184835   65.528450
H   91.275978   94.457222   59.495331
H   96.491310   98.477654   76.004471
H   16.950264   65.968445   96.123665
H   90.706314   33.092896   92.502045
H   57.639122   23.308422   45.485008
H   32.209339   19.921663   26.034218
H   65.064919   18.296453   21.194860
H   28.693438   10.508046   16.967985
H   75.570915   70.669312   58.354443
H   75.074921    7.950279   36.850010
H    6.063311   37.052635    5.441972
H   13.720074   39.452000   90.374580
H   82.449242    4.288693   13.273321
H   99.640915   27.928371   96.611595
H   56.640011   71.711182   27.190075
H   81.689949   18.588573   48.807289
H   81.356201   43.548817   65.286446
H   42.992649   54.062912   31.559181
H   65.351791   75.960678   87.485016
H   62.621296   64.986023   72.392372
H    5.049782   86.269882   58.887222
H   50.640671    8.156743   63.393528
H    2.827396    4.737019   40.304825
H   66.139099   75.676216   60.930336
H   74.142990   76.915321   22.639345
H   74.843071   51.951244   42.466438
H   69.902184   97.498260   52.795677
H   27.255552   33.879593   36.497948
H   35.851570   58.952225   59.986320
H   77.261909    1.501056   25.207367
H   52.009220   82.139374   25.903141
H   26.517052   68.861145   85.816002
H   46.016479   73.800896   84.439133
H   92.889465    4.615536   24.913973
H   68.368187   41.438042   20.539062
H   26.314850   17.207275   95.364258
H   80.558632   20.930628   86.122864
H   86.667442   91.089355   73.239388
H   62.906223    5.491902   99.343513
H   23.715136   51.683796   71.707581
H   67.038200   80.313477   62.757629
H   19.514662   39.228962   63.284519
H    0.878873   82.612938   97.196358
H   39.950886   84.273140   22.194048
H   80.209564   66.069099   23.776247
H   16.946394   31.747341    0.374243
H   36.033066    5.252339   82.370827
H   55.917061    5.962899   22.988007
H   97.487648   92.538589   66.915352
H   86.700645   31.072912   35.824722
H   60.082043   46.420284   86.445580
H   91.426956   85.255943   29.242105
H   80.704514   81.310059   56.495010
H   62.185505   64.439690   76.976082
H   75.234367   11.957907   18.727005
H    9.502950   81.484184   67.570198
H   11.018029    4.324551   89.178192
H   27.352314   73.657265   89.989670
H   26.711840   52.932419   74.752647
H   60.576969   49.917065   92.185921
H   63.606483   62.850304   26.578547
H   28.444016   85.807724   86.406769
H    6.122429    3.040763   84.609352
H   74.272728   93.039368   10.917714
H   23.970446   53.204082   30.086283
H   55.622429   68.809013   24.204433
H   99.600090   88.430099   83.718903
