100
TIME:    6.252, STEP:  6252
H   94.525467   48.681877   93.422134
H   27.809669   43.651257   72.315102
H   87.231079   23.697620   49.955418
H   82.525986   75.067657   97.468750
H   39.172455   73.882797   96.188690
H   31.068523   94.434837   97.902489
H   25.303341   83.502724   79.367622
H   28.491425   29.479427   34.156048
H   99.941780   85.189011    6.545156
H    3.995516    6.153265   52.508823
H   18.709213   17.805075   37.525314
H   17.218636   37.070927   47.904564
H   45.113754   83.519341    3.791435
H   45.518867   85.805458   33.020184
H   56.542793   11.573364   50.243191
H   50.144836   64.906227   14.070235
H   21.358589   95.492683   42.532570
H   34.763172   90.616882   82.798378
H   42.642910   40.633095   92.742432
H   24.077950   73.042519   41.997826
H   93.274185   33.811100   87.553062
H   61.765671   52.383606   86.862747
H    2.269207   43.775108   53.473709
H   38.156956   11.620333   42.745693
H    5.977492   90.344589   82.712318
H   18.046179   41.835159    2.507754
H   22.961582   82.589310   24.016050
H    5.016671   48.261925   73.432358
H   47.114799   16.322479   61.636627
H   40.721973   36.102959   80.404861
H   62.113106   82.684288   14.740593
H   60.512333   79.774750   20.485069
H   10.739141   11.056490   61.026489
H   42.264137    0.764317    8.364958
H   25.361267   86.305946    5.426738
H   16.113424   75.112099   99.769905
H   79.446785   75.573364    1.098588
H    5.587036   44.539806   63.626453
H   81.173828   45.195427   38.446724
H   74.324310   26.891739   29.928419
H    7.972091   70.702461   89.640114
H   73.329437   66.120361   99.136040
H   65.092010    0.991691   53.061905
H   80.131973   17.582418   92.023399
H   14.341427   85.219955   91.110458
H   97.423607   82.164169    8.560644
H   90.578415   64.843033   85.478172
H   56.573307   59.763550   55.416248
H   47.780609   14.659760   95.078506
H   57.003277   25.891340   46.392387
H   43.072300   66.053253   19.332771
H    8.968451   83.600693   63.631264
H   38.557880   58.259949   39.762463
H   31.909828    5.193227    7.700358
H   43.001732    6.499889   53.525669
H    1.382618    5.957226   79.793961
H   92.602013    9.147824   50.604713
H   60.518707   86.463051   52.518661
H   83.358673    2.931144   31.516441
H   46.450623    8.336850   85.788841
H   54.081776   87.824844   26.940998
H   77.022224   69.749344   12.469792
H   98.508263   80.657631    4.752045
H   72.354233   75.820404   57.400639
H   80.476105   61.508411   77.790398
H   17.276421   31.467522   15.850869
H   85.958542   64.507538   68.908707
H   48.497414   75.095680   65.084351
H   68.502480    0.557490   68.119385
H   57.047256   62.601280   88.568207
H   23.503609   70.014969   87.151741
H   58.460247   44.033356   14.363582
H   99.348557    9.057892    1.444315
H   92.579582   53.729229   31.680281
H   63.603207   37.554409   75.341934
H   73.461037    8.266895   75.248413
H   34.598232   84.674217    1.621658
H   25.710659   41.917549   59.715813
H   61.317280   35.154629   87.435204
H   92.921494   68.443581   82.305840
H   33.214378   93.961472   53.656223
H   10.442579   85.016006   63.961071
H   13.327226   11.673991   25.352142
H   80.276756   47.156517   92.393852
H   47.908989   57.820145   41.691040
H    7.398558   38.700432   75.941010
H   84.711662   48.781456   21.662970
H   56.578362    4.781965   30.754288
H   85.429306   46.070518   77.057503
H   13.577598   52.053127   47.710114
H   79.880241   11.022278   65.492599
H   40.883587   65.689468   52.649651
H   86.218811   15.109632    2.481334
H   51.498432   92.474800   48.361725
H   48.499123   89.713242   59.750278
H   10.311202   48.846588   44.525101
H   66.347984   26.469301   77.630981
H   26.209520   95.808212   53.371254
H   10.882163   63.800213   21.366364
H   27.547068   18.198833   95.465050
