100
TIME:    7.837, STEP:  7837
H   87.338127    3.331003   91.971024
H   84.038132   29.539433   72.254166
H   14.481791   37.728638   31.345135
H   82.792023    9.765610   10.589449
H   24.972761    0.927442   53.211624
H    6.485457   92.717690   54.871040
H   42.232693   90.529037    3.316772
H    3.913551   66.601006   88.626320
H   60.979454   32.797882    6.775265
H   60.703499   28.912706   14.569263
H   71.276382   81.581390   84.849808
H   56.726631   16.518642   35.082329
H   44.010307   87.622742   46.287106
H   67.039833   80.920052   53.640141
H   75.794197   69.993362   74.019318
H   86.413986   26.276428   82.501251
H   93.902016    0.328480   86.821381
H   68.657043   13.490440   27.857147
H   67.325516    7.123545   76.244705
H   81.373734   39.385593   49.911995
H   99.218040   76.019592   44.533100
H   13.721162   54.487717   51.885330
H   81.106956   30.884932    8.123837
H   90.887589   30.581514   25.029709
H   49.287788   64.648041   94.417946
H   10.655254   95.068710   53.386459
H   86.285828   16.701601   55.468876
H   71.277672   22.244360   25.821360
H   81.578682   60.125874   86.713371
H    1.499238   96.873367    6.407948
H   24.490164   24.814911   89.340584
H   60.590237   35.983128   73.753731
H   22.384336   95.090599    3.815808
H    9.233327   55.508400   41.590286
H   85.914299   66.299156    1.860294
H   53.894566   99.255875   94.787758
H   31.469601   17.527422   25.990141
H   40.074539   15.529732   75.476067
H   14.268706   10.662725   84.849037
H   25.035980   78.509995   54.634163
H   99.648682   25.089537   26.980803
H   39.754341   72.335953   80.052361
H   78.732452   10.499689   67.547066
H   78.924255   44.186119   46.995373
H   76.853539   22.685070   26.743568
H   76.962944   12.393489   14.999949
H    2.963030   51.041145    0.691090
H   56.665951   76.088547   53.486691
H   94.115181   83.389717   31.852310
H   90.279541   50.017590   35.569138
H   42.963467   13.031660   36.040146
H   86.006470   36.523220   59.586609
H   71.434898   67.450317   47.710518
H   95.207245   79.337433   77.641800
H   16.801289   45.402390   67.006210
H    3.356733    4.289960   25.836823
H   93.084213   63.413109    1.351272
H   42.496262   36.779747   11.691388
H    8.361568   69.910347    9.839375
H   41.857185   30.166042   40.707664
H   54.064770   14.115210    3.362605
H   20.767494   54.996384   40.755096
H    6.114017   72.500153   96.063843
H   81.192986   84.454514   14.363225
H   43.387215   34.915951   25.394903
H   19.908680   52.672813    9.568751
H   58.791412   19.308357   45.433025
H   39.010658   65.743767   40.856522
H   47.498055   86.669502   68.710968
H   89.190147   42.275959   85.221451
H   73.172188   62.172806   68.142189
H   27.909809   91.380272   30.495462
H   96.003601   30.662611   60.811726
H   57.682560   53.415035   37.505096
H   39.986771   39.854763   95.508408
H   10.926772    9.850578   68.597572
H   78.549522   47.488846   29.731222
H    0.176820   38.280132   47.248653
H   37.325462   30.498981    5.117233
H   15.191600   82.100670   45.756599
H   64.237297   10.359719   48.389694
H   29.379009   95.294708   31.361126
H   13.582013   38.180454   76.299774
H   89.322411   82.788086   47.627827
H   70.733368   58.668156   88.043831
H   70.925156   96.919418   86.008179
H   90.570290   33.538734   97.241661
H   82.069542   77.950073   14.320457
H   18.324150   57.820473   64.094246
H   73.443329   86.840225    4.371920
H   44.745045   96.607628   98.964890
H   58.157536   84.896912   82.852394
H   87.820389   62.669788   25.051821
H    4.682122   88.634605   55.235638
H   21.094906   47.739471   96.173157
H   41.225677   86.257812   62.657677
H   40.537834   17.428772   86.475441
H   23.150095   74.233223   21.553663
H   35.376305   70.644264   88.606163
H   25.997736   77.522354   42.777508
