100
TIME:    6.261, STEP:  6261
H   93.916824   47.856529   93.413895
H   27.561138   44.138981   72.882545
H   87.385849   24.345093   49.849743
H   82.527496   74.696869   96.975464
H   39.091843   74.604187   95.944656
H   30.928928   94.425087   98.793755
H   24.831650   84.110405   80.071434
H   27.784042   30.258015   33.329670
H   99.720543   84.323700    5.978621
H    3.749662    6.282501   52.861210
H   17.872055   18.167212   36.658424
H   16.875107   37.522053   47.263924
H   44.539444   82.975105    2.897148
H   45.073235   85.777718   33.705112
H   56.652107   10.769440   49.810398
H   49.782974   64.119057   13.323148
H   20.634865   96.088005   43.351875
H   34.955639   90.178940   82.486366
H   42.783054   41.010681   93.216629
H   23.835495   72.851357   42.610588
H   92.740112   32.915096   87.308754
H   62.628510   52.395554   86.096313
H    2.149031   43.701912   53.216217
H   37.320690   11.727999   42.077244
H    5.655610   89.630890   82.778786
H   18.005152   41.569084    1.661437
H   22.185501   82.215225   24.194647
H    4.257293   48.682014   73.729813
H   47.310493   17.139004   61.211182
H   41.067081   35.880211   81.120346
H   62.467346   83.491371   14.028542
H   61.080601   79.526047   19.651894
H   11.373104   10.398031   61.837280
H   42.644402   99.939529    7.985826
H   25.137283   85.624519    5.974329
H   16.895754   75.817009   99.741615
H   80.310036   75.243774    1.807741
H    5.215063   44.375080   64.261559
H   80.793976   44.999321   37.574547
H   73.476578   26.049191   30.636522
H    7.357020   71.011314   89.852150
H   72.570969   66.155655   99.595543
H   65.169464    1.045681   53.711952
H   79.557251   17.733480   92.903404
H   13.560745   84.864822   91.880600
H   97.307426   82.335831    8.597208
H   90.648727   65.332474   85.564552
H   56.573788   59.856247   55.973118
H   48.043663   13.914406   94.719528
H   57.192173   26.028360   45.763077
H   43.071682   65.184372   19.427631
H    9.405930   82.765594   63.040474
H   38.744579   58.312134   39.239719
H   31.701431    5.046371    8.097480
H   42.285149    7.288621   53.602230
H    1.393827    5.947759   79.487579
H   93.172615    8.888118   51.460686
H   59.848541   85.613121   52.286850
H   84.068527    3.311459   30.825539
H   45.856743    9.028646   85.532860
H   54.649494   87.406265   26.239315
H   76.702797   69.665573   12.062560
H   99.119240   80.043495    4.134888
H   72.972214   75.869431   57.156261
H   80.833298   60.789562   78.628517
H   16.723568   31.020103   16.383024
H   85.236465   64.818726   69.343216
H   47.875725   75.610390   65.514603
H   68.950996   99.910812   67.554962
H   57.229561   63.053986   88.549255
H   23.217793   69.402618   87.043800
H   57.718189   43.734665   15.022521
H   98.761749    8.612740    1.213538
H   92.381416   53.159657   31.145555
H   64.037102   37.567249   76.024185
H   73.673759    8.843712   74.642792
H   35.415615   83.895287    1.781275
H   26.133495   41.329025   60.212875
H   61.748837   35.128193   87.535591
H   92.480118   67.953316   81.530479
H   33.390503   94.054581   54.194141
H   11.117912   85.074371   63.208164
H   13.896523   11.824487   26.209282
H   80.895973   47.926659   91.571800
H   47.470772   57.257164   40.818588
H    7.191406   39.031052   76.565994
H   85.312752   48.127083   22.092123
H   56.723106    4.061777   30.660973
H   85.616074   45.569405   76.983894
H   12.781861   51.682819   48.031807
H   80.248558   11.508251   65.682663
H   41.549496   66.366364   52.821106
H   86.795731   15.379689    3.177318
H   52.368206   93.020821   48.968582
H   48.343529   88.907120   59.957096
H   11.054564   48.491180   44.060242
H   65.633598   26.985762   77.113388
H   26.192148   96.253571   53.190598
H   10.453439   63.839008   20.612495
H   28.106066   17.967880   94.598091
