100
TIME:    5.189, STEP:  5189
H   66.411537   46.163551   94.395340
H   57.167458   86.047989    5.288147
H   68.951035   47.221115   62.436779
H   82.347565   18.863644   55.737381
H   48.693649   88.678741   25.009346
H   47.556248   95.586464   92.630089
H   81.014214   11.723024   96.239563
H   12.041130   37.516148   31.757137
H   26.072411   87.392120   73.458748
H   33.037544   90.889717   10.884069
H   17.586884   75.033295   39.918751
H   57.793198   83.788521   23.570116
H   12.946152   47.801598    9.416748
H   98.153069   89.081917   52.126106
H   43.617455    6.525286    1.340901
H   92.884781   57.880142    2.308393
H    6.838580   25.183056   45.763489
H   12.031068   42.338612   19.648283
H   26.088856   96.036850   36.738400
H   52.714523   95.620888   69.623878
H   56.354103   39.636284   16.406284
H   59.854828   50.972458   77.387009
H   16.463402   52.420418   83.886383
H   36.924961   98.903778   21.692501
H   43.995148   74.646576   74.861794
H   22.891932   73.259201    2.468220
H   14.625219   26.775890    2.922833
H   94.709419   98.644699   38.293701
H   24.001167   19.878687   11.885666
H   99.963318   62.411949   95.899635
H   20.274513   87.363220   98.841774
H   93.393959    9.147162   18.892296
H   35.863277   88.830742   65.263054
H   97.348526   98.181938   53.146492
H   51.787170   66.671463   40.701607
H   23.708361   91.853096    3.112849
H   77.491180   14.503044   17.338055
H   49.520092   63.995808   88.615074
H   26.042728   68.357719   41.459335
H   74.447029   26.406227   46.294445
H   80.620544   34.230095   64.596291
H   65.262718   44.743355   46.580837
H   55.936733   94.616837   76.280220
H   48.007710   99.739929   88.089035
H    6.548773   27.160599    0.146755
H   11.141802   61.889057    4.241697
H   82.273727    7.032889   75.275734
H   56.516537   48.814987   89.643867
H   16.711021    2.697643   37.482658
H   34.706638    9.711248   20.739075
H   43.148731   68.678986    8.127318
H   57.307945   82.239243   33.413895
H   16.506664   52.096313    1.499426
H   56.523819   22.539352   60.792503
H   27.639408   13.343812   44.482967
H    0.058567    7.075398   15.981003
H   25.212196   39.820473   49.504570
H   39.671524   86.850426   79.898178
H   99.523018   58.017136   13.120262
H   16.599033   26.631786   16.023079
H   87.026459   37.259541    9.821321
H   14.748735   79.643600   60.570328
H   26.341158   53.195236   77.645142
H   99.358376   70.029831   86.258041
H   38.282700   46.407619   78.797859
H   82.577599   84.312584   52.997505
H   71.245239   27.760338   17.587193
H   21.926216   14.301589   14.266807
H   15.520258   76.937889   34.787735
H   35.515083    9.133219   90.806580
H   57.258644   42.340805   99.900734
H   46.110023   79.312057   36.535942
H   68.658798   61.635323   28.702133
H   15.979725   21.007557   94.841301
H   12.354413   36.037830   94.759003
H   48.331055   40.139061   46.775166
H   38.082439   76.798775   82.818504
H   75.768982   11.423981    1.007611
H   10.345414   38.276997   75.578316
H   45.047028   26.348755   73.884277
H   12.412460   82.964249   90.123680
H   30.662605   78.115677   52.876732
H   46.091293   93.897766   24.117628
H    7.145281   56.193161   89.482239
H   99.667305   24.309570   44.736992
H   31.866543   99.653954    2.123000
H   13.716314   26.070358   70.975052
H   39.480225   89.851120   41.780197
H   63.369980    5.257423   85.751472
H    7.560897   95.784714    9.712503
H   36.377953   53.621723   43.043987
H   62.232349   85.741943   32.398865
H   18.078203   83.217140   20.277912
H   48.764610   27.983717   76.685478
H   66.876488   84.930565   35.322819
H   22.511749   90.824188   99.430115
H   50.723747   65.466759   38.765045
H   25.912184   60.418915   72.998466
H   61.521088   59.218037   10.403267
H   61.518291   45.474972   97.867310
