100
TIME:    3.118, STEP:  3118
H    6.464971   36.084770   96.291397
H   14.537382   73.798813   74.682510
H   33.350365   98.225967   86.738930
H   81.999954    4.187815   69.256287
H   67.243408   22.678951   81.163254
H   79.670906   97.830132   87.531914
H   89.556053   71.880821   34.284599
H   74.817642   58.347622   21.909229
H   76.981544   86.510330    3.819321
H   89.634850   61.153221   29.787401
H   10.226257   91.702194   39.407955
H   36.835754   79.979996   70.986473
H   44.926018   73.063995   15.225399
H    0.696256   95.465309   94.520576
H   18.427238   91.515244    0.891977
H   76.156189   39.017487   74.220070
H   73.376106   88.202332   57.232189
H   67.773888   43.072395   91.447937
H   93.831139    9.155864   27.630785
H    8.516190   39.600918   28.620539
H   79.250183   45.811073   72.613190
H   61.306046   48.223175   53.751770
H   44.114235   69.263725   43.141373
H   29.345551   74.077209   75.504402
H   18.066666   38.886635   59.566933
H   32.362125   34.703625   96.921486
H   93.210068   12.864860   61.839787
H   69.453270    1.977407   69.838127
H   78.968491   31.980974    9.783129
H   20.551266   13.669726   31.260166
H   38.768063    1.653159   62.692711
H   62.629616   66.361809   10.615150
H   89.985077   40.354164   78.691017
H    9.843768   87.976723   40.393967
H    3.265451   23.223389   14.593483
H   43.652523   29.419767    9.921838
H   78.855385   90.347153   54.151485
H   35.118637    1.886071   42.469593
H   13.459786   13.481516   42.154587
H   69.511887   20.286291   83.352333
H   22.158400   63.167164   15.804442
H   51.393089   51.797058   49.287155
H   38.097996   82.197662   26.690357
H   80.253967   65.030304   85.595299
H   86.192024    8.872210   22.926775
H   37.861126   22.387867   95.829262
H   66.094040   94.404572   55.391899
H   56.405933   27.486017   61.502098
H   56.169754   74.216179   20.095263
H   91.274315   78.200233   65.586212
H   43.306736   68.620697   86.292526
H   56.661427   74.412689   69.372093
H   73.556099   40.087952   21.780334
H    4.490124   56.336571   69.405304
H   92.533096   31.837700   26.867739
H   97.467545    9.255026   86.482727
H   93.920021   99.577873   52.535225
H   93.883781   82.430817   33.244217
H   36.186569   70.511765   72.113548
H   53.261971   67.448883   74.927254
H   56.386665   33.570736   71.291153
H   88.250694   98.920181   54.276344
H   85.741600   94.516045   19.659866
H   57.147911   58.755646   42.488071
H   56.082638   11.814116   85.934624
H    9.801500   87.267891   30.544392
H   37.405952   56.158039   17.599367
H   64.984169   95.858337   15.261031
H   12.301876   25.746727   64.678535
H   93.556458    4.968319   95.167511
H   23.022030   83.250801   24.746429
H   16.874086   48.044830   84.907379
H    3.691641   64.075371   81.802238
H   61.575077   52.067024   17.896538
H   12.503459   33.083141   37.763950
H   99.366631    7.406789   86.127594
H   50.049587   56.299995   46.192997
H   78.469635   46.842686   86.635269
H   11.033202   44.360180   52.470139
H   46.612801   39.140926   52.302689
H   71.896042   61.538799   66.344315
H   75.271866   64.590469   26.052561
H   15.074581   59.301819   26.873875
H   64.662308   78.972870   78.635376
H    0.507974   53.852825   45.497246
H   79.531433   23.582943   58.306606
H   75.398888   76.648918   72.221558
H    6.147348   55.659729   63.316246
H   20.390553   20.566938    2.690473
H   90.665283   80.992752   35.678864
H   51.624023   41.794514   99.308182
H    8.992191   29.997095   92.936546
H   85.324524   21.072050   60.124168
H   48.594860    2.361882   37.049461
H    2.680840   70.438904   87.735771
H   51.455612   72.604988    6.400158
H   15.110364   46.616116   57.870628
H   18.312155   42.785583    6.145691
H   60.179100   50.290768   83.871605
H   32.881824   98.622261   97.372360
