100
TIME:    9.982, STEP:  9982
H   42.279694    6.625151   90.007217
H   24.797642   45.774891    7.501380
H   51.352253   92.049400    6.165905
H   83.152054   21.392443   93.014786
H    5.752008   72.858307   95.053627
H   73.229248   90.393852   67.297539
H   29.813862   35.370895   71.058578
H   35.320786   52.171024   91.679314
H    8.251259   26.563244   71.757195
H    2.112473   59.711735   98.556404
H   71.753632   67.888550   78.229607
H   74.857307   24.035778   82.399635
H    7.230568   57.790787   33.124458
H   60.832504   74.308571   16.874264
H    1.847639   78.391388   70.864037
H    0.167285   38.666794    4.447262
H   21.414070   42.201981   82.089188
H   14.526519    9.114796   53.500435
H    0.742930   97.108917   89.265274
H   23.583820   93.833710   95.953606
H   71.930191   62.479443   86.313171
H   19.364410   57.335236   69.218781
H   52.467743   13.442253   46.794037
H   91.586075   56.241913   65.725449
H   72.571030   94.537369   10.254211
H    0.538182   31.834175   51.531651
H    1.319552   27.536394   98.021286
H   90.289619   22.365726   96.722862
H   28.220211   54.737003   85.317947
H   83.747643   43.785141   76.929115
H    8.909318   17.161339   19.635025
H   96.027023   76.718018   75.180351
H   73.476967   38.151337   97.054344
H   99.864731   58.931938   51.225227
H   32.531502    3.892515   32.366283
H   40.355152   67.268890   88.045357
H   37.202797   38.973396   95.008011
H   51.416164   76.281380   26.843193
H   23.727879   63.925987   76.982643
H   23.000957   77.701691   23.397268
H   53.052231   98.690887   77.516075
H   58.984673   80.753799   89.547112
H   97.192230   23.369053   22.483089
H   41.968227   80.196693   56.719173
H   90.759857   38.016941   10.281226
H   49.281982   53.302197   23.714338
H   19.733654   67.697998   21.289488
H   56.796871   98.181366   86.206787
H   56.811203    5.747045   46.248993
H   35.304779   82.675224   85.591774
H   46.863605    6.249496   52.436203
H   90.253891   37.483521   18.779451
H   15.919428   79.887756   23.132969
H   45.529037   44.339760   72.294502
H   46.013466   33.379356   85.236877
H    6.028328    2.033628   52.815948
H   29.067497    1.519738    5.358680
H   82.775833   34.210701   56.442039
H   77.540840   60.548218   45.167095
H    0.310783   95.037201   79.698769
H   89.376343   14.362288   36.128063
H   44.637230   35.031021   43.702103
H   51.770565   26.180819   48.998856
H   28.485798   96.139160   56.130859
H   28.524948   63.598141   25.148829
H   88.140106   46.038750   36.398602
H   86.693581   93.466309   48.993481
H   90.840614   88.418221   43.399933
H   54.404930   32.543472   34.179295
H   32.754196   50.013165   80.671967
H    5.049350   16.219898   42.416328
H   51.273071   20.159569   87.722137
H   56.147522   24.559641    5.808788
H   10.469387   17.659912   10.057417
H   43.313179   43.013218   58.143528
H   61.641655   47.325893   24.267696
H   73.361275   61.833836   67.777855
H    0.944440   98.031548   65.720604
H   40.186058   24.198437   29.057444
H    9.999244   65.252388   60.963020
H    6.229431   32.550732   76.593987
H   90.337090    9.214654   51.909042
H   49.257378   74.052650   80.578430
H   36.894794   66.340652   51.715286
H   66.291611   24.486252   80.111389
H   21.554089   75.710747   34.963703
H   33.830128   77.579124   99.523354
H   16.565556    6.308125   92.086121
H   62.839603   38.390007   46.550911
H   83.796173   98.587997   81.048248
H   32.527885   12.429610   44.263695
H   16.865816   46.220993   23.723101
H   25.318821   27.024328   90.927971
H    7.935724   18.462841    6.088820
H   84.007462   55.603691   45.460701
H   18.393906    1.554678   51.865692
H   70.278160   40.524124   63.114090
H   19.009737   80.369415   78.484947
H   33.193413   79.906883    8.939800
H   59.230537   22.481255   36.142292
