100
TIME:    6.283, STEP:  6283
H   92.429031   45.839012   93.393753
H   26.953617   45.331196   74.269630
H   87.764175   25.927803   49.591427
H   82.531189   73.790497   95.769653
H   38.894791   76.367584   95.348129
H   30.587696   94.401253    0.972443
H   23.678627   85.595848   81.791862
H   26.054886   32.161228   31.309635
H   99.179741   82.208496    4.593760
H    3.148687    6.598409   53.722599
H   15.825668   19.052435   34.539360
H   16.035370   38.624805   45.697914
H   43.135574   81.644753    0.711113
H   43.983910   85.709908   35.379383
H   56.919319    8.804291   48.752460
H   48.898422   62.194862   11.496934
H   18.865761   97.543236   45.354622
H   35.426113   89.108414   81.723671
H   43.125629   41.933670   94.375778
H   23.242828   72.384071   44.108452
H   91.434601   30.724865   86.711555
H   64.737671   52.424759   84.222809
H    1.855270   43.522987   52.586792
H   35.276485   11.991182   40.443256
H    4.868787   87.886292   82.941261
H   17.904863   40.918678   99.592644
H   20.288414   81.300797   24.631216
H    2.401034   49.708900   74.456924
H   47.788857   19.134953   60.171204
H   41.910679   35.335716   82.869308
H   63.333267   85.464241   12.287971
H   62.469700   78.918106   17.615242
H   12.922791    8.788465   63.819214
H   43.573936   97.923355    7.059040
H   24.589767   83.958809    7.312885
H   18.808115   77.540123   99.672462
H   82.420204   74.438110    3.541229
H    4.305796   43.972416   65.814140
H   79.865448   44.519951   35.442558
H   71.404343   23.989628   32.367458
H    5.853512   71.766289   90.370461
H   70.716934   66.241928    0.718710
H   65.358795    1.177655   55.300957
H   78.152374   18.102743   95.054527
H   11.652412   83.996719   93.763168
H   97.023430   82.755447    8.686586
H   90.820602   66.528885   85.775703
H   56.574963   60.082840   57.334354
H   48.686684   12.092430   93.842026
H   57.653919   26.363298   44.224762
H   43.070171   63.060440   19.659512
H   10.475323   80.724243   61.596321
H   39.200954   58.439697   37.961903
H   31.192017    4.687388    9.068221
H   40.533501    9.216634   53.789379
H    1.421228    5.924617   78.738647
H   94.567421    8.253280   53.553062
H   58.210358   83.535515   51.720200
H   85.803726    4.241120   29.136665
H   44.405037   10.719701   84.907127
H   56.037251   86.383072   24.524090
H   75.921974   69.460800   11.067103
H    0.612779   78.542274    2.626282
H   74.482834   75.989273   56.558895
H   81.706436   59.032375   80.677254
H   15.372150   29.926414   17.683836
H   83.471390   65.579407   70.405350
H   46.356041   76.868568   66.566330
H   70.047371   98.330032   66.175262
H   57.675194   64.160576   88.502930
H   22.519131   67.905762   86.779945
H   55.904270   43.004532   16.633263
H   97.327332    7.524590    0.649415
H   91.897011   51.767368   29.838449
H   65.097893   37.598637   77.691910
H   74.193748   10.253708   73.162384
H   37.413662   81.991234    2.171453
H   27.167095   39.890411   61.427917
H   62.803753   35.063572   87.780983
H   91.401199   66.754890   79.635155
H   33.821030   94.282181   55.509052
H   12.768726   85.217041   61.367725
H   15.288140   12.192365   28.304512
H   82.409615   49.809227   89.562340
H   46.399574   55.880989   38.685928
H    6.685033   39.839233   78.093735
H   86.782082   46.527504   23.141165
H   57.076927    2.301317   30.432869
H   86.072617   44.344460   76.803963
H   10.836728   50.777622   48.818169
H   81.148888   12.696186   66.147263
H   43.177273   68.020996   53.240219
H   88.205978   16.039829    4.878612
H   54.494320   94.355537   50.452011
H   47.963188   86.936600   60.462650
H   12.871673   47.622406   42.923920
H   63.887321   28.248220   75.848160
H   26.149683   97.342224   52.748993
H    9.405446   63.933842   18.769707
H   29.472506   17.403328   92.478859
