100
TIME:    5.601, STEP:  5601
H   38.549232    8.381783   94.018143
H   45.788673    8.372802   31.266079
H   76.036057   76.862534   57.599224
H   82.416718    1.888196   33.152695
H   45.003403   21.702272   13.839439
H   41.165897   95.140114   33.431904
H   59.420338   39.544346   28.458574
H   79.658737   73.158951   93.928230
H   15.944664   47.780121   47.524437
H   21.779634   96.805428   27.018682
H   79.263657   91.611115    0.233211
H   42.067215    4.439912   94.244209
H   86.655533   22.887142   68.478203
H   77.752983   87.812019   83.478676
H   48.627892   69.723618   81.537903
H   76.319534   21.845230   68.109100
H   73.707985   52.432415   83.269470
H   20.841413   22.292957    5.366652
H   32.505802   13.321017   58.442959
H   41.615494   86.869911   97.674782
H   31.905434   98.619385    5.223957
H   99.353668   51.519394   42.301376
H   10.961888   49.069649   72.098969
H   98.643990    3.832491   91.094086
H   29.259602   41.972885   77.904518
H   21.013803   61.081261   63.723915
H   79.098862    9.649271   11.098042
H   59.944775   17.875435   51.913666
H   32.959602   57.258427   92.410522
H   15.760765   52.215050   28.651634
H   36.489716   24.308323   66.245644
H   19.407627   97.764267   80.751442
H   64.885368   58.686394    2.379269
H   14.756854   60.424492   35.789131
H   41.546265   35.527542   65.788589
H   59.522877   24.123203    1.817127
H   17.008125   99.413696   49.802166
H   32.492779   56.455006   17.689114
H    8.651124   59.380424    1.534152
H   35.642017   87.836403   78.709984
H   52.462769   48.365562   74.302834
H   28.234360   63.235451   65.934517
H   59.485531   97.087479    6.040683
H   21.701344    6.655523   28.372347
H   70.809624   10.906293   35.403545
H    5.825282   69.747330    5.915858
H   85.492477   29.439960   79.230019
H   56.538540   53.058456   15.136024
H   28.753044   68.574097   21.047337
H   43.347599   15.982153   91.923386
H   43.117298   28.903410   12.470588
H   77.330833   44.008656    6.365731
H   25.053326   54.485229   77.572441
H   46.983871   15.815833   78.973412
H   94.834587   49.450268   47.987759
H    0.571757    6.642015    1.955551
H   51.329964   27.932472   88.689079
H    8.993812   47.942528   69.286362
H   32.015656   75.424965   81.491737
H   89.410858   58.300640    4.304817
H   13.015745   18.099922   77.697411
H    0.127464   75.808762   41.927353
H   54.313160   25.081079   49.393066
H   27.649815   72.274155   75.074142
H   54.637344   13.501186   17.165808
H   57.267662   63.830772   77.358162
H   38.190186   42.003147   37.479202
H   93.466240   37.865025   33.962788
H   36.055485   47.334190    8.946794
H   43.860573   29.855755   89.939026
H   44.176186   14.308714   94.959450
H   12.139437   65.638657   66.702011
H   41.796066   41.257240   18.137466
H    6.911274   94.932030   70.361198
H   32.218403   36.625629   25.992146
H   58.072174   66.545708   19.053576
H   75.490013   41.088749   90.104698
H   95.125488   84.485054   23.761614
H   30.101345   37.066822   80.173836
H   24.845528    3.905942   38.390015
H   20.474703   87.226578   14.747876
H   61.581177   80.794144   18.417150
H   72.151497    0.787830   63.355572
H   35.489891   91.448532   51.851543
H   79.606697   98.538200    4.798309
H   22.383175   14.787387   30.733780
H   41.232857   96.114449   90.620743
H   46.108482   56.876759   37.504082
H   71.919785   82.317757   82.381844
H   71.135742   78.835983   24.440149
H   53.238670   75.868607   51.744671
H   92.716179   16.728163   40.247711
H   44.488297   95.576637   52.138508
H   88.582863   52.979321    4.465992
H   59.753746   48.026737   44.790470
H   56.541229   74.554413   78.149902
H   18.021418   89.110741   15.070739
H   27.424128   63.926849   66.403801
H   41.894257   60.994007   75.895073
H   87.110825   34.904018   58.179409
