100
TIME:    4.054, STEP:  4054
H   43.166412   50.248840   95.434464
H   88.514351   24.543642   33.723145
H   49.439293   65.564995   75.755898
H   82.157059   65.625420   17.949095
H   58.859741   97.703484   55.783737
H   65.160164   96.816093   80.227562
H   40.500027   35.083294    7.481081
H    1.249891   39.324169   35.969250
H   53.972878   96.517715   44.902477
H   64.055382   74.592796   66.442261
H   23.161819   29.363819   49.247303
H    1.108795   26.896509    4.361319
H   85.373062   16.436737   22.196365
H   54.350456   92.580299   65.752426
H   29.813744    7.907947   55.901585
H   38.522522   57.151421   96.523376
H   98.108467   50.110447   42.439964
H   87.769005   97.554466   58.997616
H    8.410767   48.424843   76.942047
H   83.296196   19.724993   92.347832
H   23.706604   52.629498   47.209831
H   51.041275   49.465729   74.042740
H   31.617287   61.651299   16.360111
H   42.380989   85.303040    5.987074
H   84.590240   64.658157   66.479530
H   28.067045    6.814902    9.189442
H   12.497511   73.958450   80.407509
H   90.477264   45.666718    0.773562
H   99.320663   16.902699   65.537453
H   56.441360   90.502922    5.670310
H   75.606819   85.585487   88.639366
H   21.729078   40.503189   23.964943
H   55.916584   71.872459   63.013290
H   49.392975    2.197907    0.963419
H   79.999374   52.468834   71.587662
H   25.043436    2.948064    6.693298
H   68.629562   56.069809   27.904531
H   96.433846   84.760963    8.521767
H   73.953186   93.088860   51.449364
H   81.351616   32.661125   56.995472
H   58.189438   95.287704   37.856182
H   67.270706   93.803162   93.262131
H   46.160313   87.810577   94.298759
H   20.483538   80.712189   77.112915
H    5.001570   71.939697    3.022045
H   25.785503   40.240650   99.628334
H   73.406540   45.308556   64.382256
H   56.455921   37.124847   19.416435
H   83.532455   96.698090   82.758881
H   10.902049   92.439613    0.123374
H   43.235325   78.255806   96.161545
H    2.150148   87.558441    7.923437
H   92.965645   45.515198   67.420723
H   82.811180   41.061729   10.708591
H   18.008438   13.870821   34.827778
H   98.638687    8.269552   54.619080
H   53.256741   72.570183   41.556648
H   24.186516   94.037071    9.132940
H   10.007750   10.059874    0.254909
H   91.497040   39.392361   48.305183
H   15.429863   90.042625   98.314857
H   55.030235   90.208023   11.922574
H   49.286991   30.645851   55.475517
H   21.419970   63.847260   17.072849
H   93.232231   37.057613   73.100365
H   52.301460   40.736397   85.887924
H   62.308548   88.519836   62.789471
H    0.328098   49.390152   60.007244
H   58.954628   58.491745    5.971828
H   12.520807   52.047989   93.196564
H   93.298912   19.565655   13.517029
H   39.696266   16.980988   53.437428
H   42.663498   17.779522   57.806252
H   40.967037   92.834160   62.279076
H   57.629559   34.418530    8.718398
H   21.495691   67.397423   23.147106
H   35.031670   75.173386   62.746098
H   22.444622   85.639656   38.327484
H   55.915298   41.610851   62.917587
H    0.709271   88.164391   71.665520
H   90.205856   71.222153   22.286856
H   45.501816   70.703262   47.784790
H   74.294563   74.926575   16.023449
H   29.059256   59.068672   93.147049
H   54.933365   95.303871   54.762558
H   57.991840   57.966530   23.305435
H   37.912224    8.594109   16.854033
H   21.211527   80.721291   53.582909
H   39.816513   68.451988   95.034309
H    7.910087   42.483879   69.136078
H   89.928955   92.336174   19.074869
H   78.251373    0.383385   10.773651
H   45.322701   49.158051   32.506573
H   39.062527   59.139084    0.159559
H   86.498604   86.596855    9.244033
H   28.765396   35.642586   58.054588
H   40.814606    0.331556    4.039457
H   21.747030   50.755066   91.165810
H   15.589989   54.325497    5.471130
H   91.020943   74.599556    7.204970
