100
TIME:    4.907, STEP:  4907
H   85.482338   72.024452   94.653519
H   64.955849   70.768112   87.507874
H   64.101578   26.932838   65.746788
H   82.300232   30.482761   71.194832
H   51.219498   66.075195   32.654755
H   51.930225   95.891975   64.703758
H   95.794945   92.681244   74.186798
H   34.205772   13.120347   57.650311
H   33.004509   14.505463   91.208534
H   40.744179   86.840614   99.840668
H   43.817841   63.686344   67.081543
H   68.556190   69.653236   43.643059
H   30.941208   64.854301   37.437744
H   12.115741   89.951118   30.665003
H   40.187981   31.714033   14.896788
H    4.223482   82.544815   25.717422
H   29.515480    6.531522   20.091917
H    6.000892   56.058659   29.423574
H   21.696590   84.207962   21.882364
H   60.311432    1.610331   50.423988
H   73.088387   67.710785   24.060207
H   32.819214   50.598099    1.401916
H   20.228508   54.713905   91.954468
H   63.127949   95.530243   42.636719
H   54.081329   97.009155   72.779152
H   24.177446   81.594070   28.986353
H   38.942734   38.498875   97.327980
H   18.503689   85.481888   28.971300
H   17.869423   94.293694   25.215218
H   89.149933   69.391380   73.481117
H    9.175725   62.074780   21.152718
H   75.588234   16.938179   44.998466
H   15.999443    9.463129   39.858269
H   85.433578   24.025360   65.027016
H   58.796722   87.988419   23.530571
H   99.195160   69.765907    3.999838
H   50.443733   24.831268   95.117844
H   61.174709   69.155083   68.713799
H   37.946918   74.502373   68.787552
H    1.009272   52.806923   24.106520
H   99.893585   24.554846   57.952496
H   90.607262   32.086143   33.334118
H   53.507702   92.925766   55.910774
H   66.013763   95.006653   60.515823
H   31.010130   38.285950   76.015648
H   14.780508   56.510334    3.095328
H   80.070602   91.696678   72.569160
H   56.501476   45.910477   72.195290
H    8.468666   26.052113   48.732796
H   28.792194    5.419027   40.461777
H   43.170246   95.903931    5.154498
H   43.602959    8.406080   51.927460
H   10.657256   50.461182   17.877657
H   63.053589   27.141388   48.348289
H   50.092560   88.628914   42.084057
H   99.705978    7.372035   25.580948
H    7.335212   47.957405   22.684105
H   60.670059   13.481915   87.161606
H   77.280922   46.102188   34.769760
H   35.207264    4.955571   24.043831
H   69.237946   50.372868   31.807541
H   24.756388   82.268417   73.329239
H    7.196130   72.438156   96.982727
H   79.994972   68.493668   93.913040
H   27.088972   68.931091   52.536777
H   99.901390   98.331688   36.323463
H   93.870300   18.010864    3.971572
H   41.405800   98.173172    0.785575
H    1.465013   97.200615   52.475128
H   29.802465   94.949707   91.400391
H   66.213142   61.527786    3.283744
H   69.361664   88.671036   15.888938
H   87.045425   75.585213   35.933289
H   22.186771   38.854824   11.596478
H   98.758308   35.635502   73.381805
H   41.663589   22.064993   65.749344
H   12.478388    1.239756   77.831352
H   62.520107   29.863319   85.435020
H   96.822502   39.105320   72.432838
H   58.876648   41.708065   98.178894
H    6.894374   80.046829   73.268913
H    9.502873   76.274002   76.457054
H   28.253298   89.181702   97.261124
H   87.743546   32.062057   15.238845
H   13.398759   41.949631   72.073814
H   38.357586   89.296684   82.540100
H   94.882149   46.574051   57.528244
H   34.940582   12.428513   44.712677
H   57.517929   20.958284   88.057869
H   32.493633    7.386917   99.631973
H   24.837364   38.395634   37.088665
H   41.367207   64.532562   27.026594
H    0.001854   74.756248   98.470383
H   21.507683   10.878068   57.671329
H   71.751762   10.189835   28.843056
H   99.219635    1.960177   13.996210
H   73.107841   49.283260   54.982971
H   24.877317   58.017853   77.512291
H   74.954987   58.002445   34.024467
H   44.003017   52.710430   25.033323
