100
TIME:    6.666, STEP:  6666
H   66.527908   10.716650   93.043106
H   16.377228   66.086281   98.417519
H   94.350494   53.482491   45.094379
H   82.595474   58.011383   74.777588
H   35.464294    7.066644   84.963135
H   24.647152   93.986320   38.902500
H    3.605920   11.457140   11.743036
H   95.951836   65.294556   96.143318
H   89.764870   45.384720   80.486366
H   92.687294   12.098360   68.718605
H   80.199951   34.463367   97.646935
H    1.416342   57.822727   18.435841
H   18.695480   58.483822   62.654228
H   25.020290   84.529396   64.526863
H   61.571236   74.592857   30.334728
H   33.499176   28.696388   79.704590
H   88.066963   22.875286   80.220619
H   43.616642   70.471527   68.445839
H   49.089550   58.002068   14.553515
H   12.925041   64.249062   70.184898
H   68.706833   92.595551   76.314873
H    1.456253   52.933197   51.606796
H   96.741493   40.408073   41.629074
H   99.690056   16.572969   11.997946
H   91.170479   57.513794   85.769814
H   16.158934   29.595703   63.575394
H   87.262398   65.381424   32.231487
H   70.083237   67.586052   87.115280
H   56.116722   53.883526   42.066132
H   56.596943   25.856560   13.316593
H   78.405373   19.808998   81.986305
H   86.652649   68.334412   82.159065
H   39.901203   80.766289   98.322876
H   59.756294   62.823593   90.923950
H   15.057941   54.960304   30.616037
H   52.101467    7.538227   98.468575
H   19.155479   60.412231   33.719944
H   88.474648   36.962399   92.843178
H   63.700565   36.174553   98.327774
H   35.330936   88.134674   62.502644
H   79.677963   84.909706   99.393776
H   38.439880   67.743866   20.271549
H   68.654877    3.475273   82.966087
H   53.695980   24.531271   32.502083
H   78.429131   68.883835   26.538153
H   92.079308   90.060593   10.242582
H   93.812790   87.357315   89.451653
H   56.595417   64.027618   81.032242
H   59.881088   80.371620   78.565506
H   65.693115   32.194218   17.444895
H   43.043873   26.084482   23.696335
H   29.092999   45.184624   36.454933
H   47.146030   60.660461   15.717344
H   22.323570   98.438370   25.967945
H   10.037849   42.781471   57.047474
H    1.898254    5.521738   65.700424
H   18.847933   97.201576   89.979439
H   29.691191   47.366280   41.855331
H   16.010796   20.425869   99.734596
H   19.132156   40.159435   74.013695
H   80.196831   68.570206   94.662674
H   62.328560   65.895889   93.737762
H   26.614794   52.407387   76.362823
H    0.781409   78.075623   46.159290
H   96.906982   28.441521   16.344561
H   91.844666   10.886480   40.329788
H   52.743027   78.822174   88.896133
H   19.899727   98.772316   84.875946
H   89.134254   70.810089   42.153286
H   65.433800   83.422783   87.696442
H   10.356403   41.846848   82.186470
H   24.325232   30.293579   44.675453
H   72.355423   88.579132   90.831116
H   83.463951   27.528625    7.082907
H   83.565300   38.145061    6.725736
H   83.246284   34.800625   47.391716
H   72.197845   48.842068    8.964090
H   45.161129   14.846453   82.578133
H   81.171623   33.938580   92.053032
H   72.618210   45.891396   46.639275
H   41.316109   98.244492   78.400452
H   41.508064   87.700790   29.327236
H   39.514923   18.597082   64.780502
H    8.760243   82.583031   54.580250
H   27.750666   31.923035    1.558531
H   97.870163   53.908943    4.690410
H   12.361864   18.680290   41.404030
H   63.236626   71.654663   26.461792
H   94.020615   23.019896   73.671516
H   76.975235   35.018963   62.508011
H   96.822807   33.376953   74.235519
H   71.515396   96.826645   60.536598
H   12.756845   27.532284   34.496590
H   91.510201   17.591272   76.277161
H   41.341805   52.630669   69.263885
H   44.505875   32.497833   23.141586
H   33.486229   50.227692   53.821686
H   25.410402   16.293312   45.061058
H   91.160332   65.587608   86.689659
H   53.260983    7.575002   55.584286
