100
TIME:    7.265, STEP:  7265
H   26.019701   55.785469   92.494705
H   99.835861   98.542473   36.186588
H    4.649482   96.577660   38.061138
H   82.696014   33.333344   41.943584
H   30.098295   55.079128   68.721329
H   15.356406   93.337379   98.223129
H   72.210297   51.906147   58.585613
H   48.871620   17.117222   41.145950
H   75.040306   87.793182   42.781231
H   76.326668   20.699633   92.171883
H   24.482422   58.565586   39.947929
H   78.556885   87.847672   75.798576
H   80.484734   22.244518    3.131245
H   95.362282   82.683113   10.109104
H   68.846687   21.087212    1.529843
H    9.413094   76.305481   29.982817
H   39.899086   62.492680   34.749966
H   56.426373   41.324020   47.683319
H   58.416935   83.129059   46.109417
H   96.787430   51.530643   10.967539
H   33.161316   32.963715   60.055897
H   58.882965   53.728378    0.596442
H   88.743980   35.536446   24.490545
H   44.034866   23.738741   67.512665
H   69.746284   10.008568   90.193581
H   13.352215   11.929699    7.213489
H   35.609661   40.479706   44.118076
H   19.542412   95.545357    6.913747
H   69.141243    8.229860   13.751841
H   79.565796   11.031073   60.935173
H    1.977744   73.521622   34.595329
H   24.473660   51.785221   26.706596
H   82.094124   36.939919   52.285530
H   85.064995    7.928833   65.688370
H    0.149722    9.607552   67.061462
H    4.171998   54.454910   96.585732
H   76.606552   38.476196   80.918976
H   63.714401   25.998951   35.112061
H   38.414715   23.124166   40.279541
H   78.911217   32.058079    9.629174
H   38.739838    5.464496   13.504930
H   87.959236   70.092850   50.850346
H   73.809845    7.068483   26.232571
H   15.449572   34.585289   91.068840
H   26.471207   45.251385   77.795601
H   84.346855    1.485368   12.676111
H   98.492477   19.933609   95.200722
H   56.631039   70.197128   18.094540
H   77.392281   30.762684   54.671722
H   78.269775   41.311382   75.564064
H   43.002743   68.254639   30.009800
H   58.207699   89.600616   97.134583
H   59.571880   64.133667   80.929390
H    8.453598   88.667694   52.400345
H   62.344864   95.274422   62.143032
H    2.644308    4.891648   45.309052
H   56.820126   79.917809   46.949455
H   85.089035   90.797508   26.426161
H   63.250961   45.739140   53.751183
H   79.603340   86.200058   56.976707
H   17.982256   40.715263   47.958771
H   41.068886   60.320480   66.637619
H   67.282616   11.532222   35.287598
H   41.914410   81.338608   29.894634
H   20.682339   80.601227   72.126717
H   55.046967   81.108727   75.747345
H    4.683570   99.533447   17.816427
H   78.522438   33.031120   13.511611
H   18.987953   27.769760    4.583604
H   77.573143   13.547562   86.434647
H   91.335213    1.091107   75.002419
H   75.011818   10.373042   88.567940
H   33.300140   58.954617   75.475891
H   70.274910   89.617615   71.492035
H   12.433938   39.012508   52.138844
H   97.404167   73.192162    7.087647
H   26.600075   96.995674   19.587072
H   73.303238   75.680534   15.657569
H    9.897391   32.179127   98.734383
H   43.242203   13.260327   95.035042
H   53.039238    4.442117   14.201953
H   86.456367   91.585297   79.213951
H   77.403236   28.614538   21.824776
H   49.969288   33.841305   99.872429
H   98.584503   94.452415   43.492043
H   84.087021   75.911057   46.286926
H   52.367710   75.127785   69.966576
H   72.870201   23.720980   20.251152
H    6.451923   89.669044   68.772469
H   24.014883   10.372913   83.922745
H   21.336475   65.719139   86.885300
H   15.835329   41.876465   71.951088
H   51.153950   45.506123   80.818184
H   49.400177   53.931969   16.666544
H   30.985943   98.974380   83.028748
H   93.980774    8.845366   92.202049
H   85.941032   84.603287   19.372131
H   24.254190   45.931019   33.037369
H   62.625206   68.174232   36.517612
H   90.468666   92.202896   97.879227
