100
TIME:    5.022, STEP:  5022
H   77.705238   61.478340   94.548233
H   61.779732   76.999268   94.758545
H   66.079193   35.206268   64.397377
H   82.319534   25.744469   64.891731
H   50.189453   75.292953   29.536892
H   50.146511   95.767387   76.092155
H   89.767342    0.446100   83.179947
H   25.167000   23.069027   47.091038
H   30.177589    3.448499   83.970146
H   37.601402   88.491844    4.344157
H   33.120819   68.313644   56.004375
H   64.167534   75.417625   35.457100
H   23.602798   57.900185   26.010742
H    6.421762   89.596657   39.416870
H   41.586525   21.442102    9.368633
H   99.599335   72.486526   16.171085
H   20.267891   14.137752   30.560820
H    8.460059   50.463604   25.437197
H   23.487762   89.031799   27.940676
H   57.213402   99.168007   58.253731
H   66.264122   56.262131   20.938927
H   43.844376   50.750763   91.608612
H   18.693092   53.778618   88.664291
H   52.442333   96.905975   34.095421
H   49.968170   87.889664   73.628456
H   23.653212   78.195099   18.172201
H   29.025835   33.718029   99.609169
H    8.800464   90.849701   32.772987
H   20.369957    4.727385   19.779408
H   93.559647   66.545158   82.623421
H   13.701911   72.387344   12.054283
H   82.849434   13.761029   34.352333
H   24.099857    1.049402   50.218376
H   90.292511   13.486320   60.182121
H   55.938217   79.295334   30.532944
H    9.191800   78.773094    3.638100
H   61.473282   20.619404    4.179345
H   56.421940   67.051125   76.829567
H   33.092373   71.996574   57.643066
H   90.177177   42.040588   33.154560
H   92.034012   28.500425   60.661846
H   80.271721   37.247772   38.736149
H   54.498264   93.615387   64.216957
H   58.670727   96.936890   71.760056
H   21.034754   33.749016   85.856346
H   13.296638   58.703785    3.562807
H   80.969040   97.950645   73.672905
H   56.507618   47.094940   79.310844
H   11.829910   16.528149   44.144974
H   31.204113    7.169401   32.418831
H   43.161472   84.801559    6.366818
H   49.191872   97.734955   44.377602
H   13.042634   51.127991   11.198599
H   60.390739   25.264671   53.423058
H   40.936218   98.708260   43.062336
H   99.849869    7.251066   21.666077
H   14.625585   44.639153   33.621529
H   52.106827    2.621427   84.199570
H   86.351280   50.961121   25.940983
H   27.618801   13.795140   20.772957
H   76.492126   45.025234   22.841591
H   20.675253   81.198013   68.126373
H   15.003499   64.590866   89.096832
H   87.891396   69.120117   90.791321
H   31.653543   59.746265   63.246082
H   92.836723   92.614677   43.123161
H   84.643768   21.986713    9.523994
H   33.461998    4.750286    6.283240
H    7.196808   88.937447   45.262184
H   32.132324    0.733468   91.158234
H   62.561485   53.703308    1.904120
H   59.879318   84.854431   24.308720
H   79.547333   69.896278   32.984413
H   19.655529   31.576927    4.763826
H    4.302927   35.799572   82.099457
H   44.382591   29.435427   58.011532
H   22.919653   91.272652   79.865120
H   67.923019   22.343731   91.785500
H    2.337417   38.767529   73.715569
H   53.236847   35.444447   88.271515
H    9.144690   81.236557   80.142311
H   18.131744   77.025040   66.840965
H   35.527657   91.104919    8.213082
H   95.655762   41.902756    4.735539
H    7.799094   34.755989   60.925819
H   35.710529   93.520393   90.526016
H    2.562754   38.212616   63.011871
H   36.791855    3.221507   43.516808
H   59.904404   14.555552   87.117317
H   22.326090    2.655205    3.742871
H   29.543633   44.604855   39.517254
H   49.876041   73.181778   29.217413
H    7.373387   78.207344    7.363544
H   32.623215   17.853682   65.424904
H   69.763618   99.888603   31.485287
H    8.718246   97.418976    8.056126
H   63.979576   55.882915   48.369278
H   25.299337   58.997009   75.671547
H   69.476624   58.498165   24.391708
H   51.145771   49.759800   13.955039
