100
TIME:    9.801, STEP:  9801
H   54.520172   23.223305   90.172928
H   29.795883   35.966213   96.088921
H   48.241039   79.027321    8.290796
H   83.121674   28.850103    2.935600
H    7.373899   58.350357   99.961418
H   76.035278   90.589943   49.372063
H   39.299564   23.148371   56.904140
H   49.547028   36.512768    8.297829
H   12.700584   43.965820   83.149788
H    7.056826   57.112843   91.469521
H   88.589813   60.605576   95.665108
H   81.764671   14.963781   95.283623
H   18.772552   68.746223   51.110947
H   69.794678   74.866463    3.099589
H   99.648933   94.559204   79.569359
H    7.445299   54.497665   19.472141
H   35.968971   30.230782   65.612045
H   10.655799   17.922035   59.773956
H   97.923111   89.516617   79.723114
H   28.459850   97.678192   83.630272
H   82.670990   80.497810   91.226486
H    2.011765   57.094955   84.632614
H   54.884727   14.919086   51.932800
H    8.403278   54.076630   79.167328
H   79.044785    8.891518    8.918171
H    1.392023   37.170029   68.564934
H   16.927418   35.060619   94.430893
H    5.562220   13.917256   90.740715
H   24.284588   38.315098   93.874130
H   76.807137   48.264847   62.539925
H    1.785495    0.930949   33.955170
H   84.598526   81.719711   91.936440
H   60.727959   51.394363   80.748436
H   92.217194   75.519554   58.850670
H   37.036064   17.596718   21.353445
H   24.621267   53.091297   88.614296
H   19.842762   45.601814   80.745865
H   58.896610   79.592827   14.071059
H   31.368511   67.869896   94.523094
H   40.048786   94.645584    9.156526
H   65.422516   92.479507   73.251793
H   74.238777   80.041245   80.311516
H   95.634552   22.282959    9.409740
H   53.525150   77.158669   39.022678
H    6.474781   45.181156   94.801956
H   51.617119   49.849895   22.978998
H   18.318211   57.853931   19.551600
H   56.785824   96.317123   75.007523
H   51.521172   20.731808   53.509499
H   31.505865   79.918907   98.246529
H   45.855534   23.647713   52.096497
H   81.457428   54.279655   30.661581
H   12.165051   78.838257   33.645332
H   49.720131   47.293549   64.307259
H   60.424751   17.517355   83.698532
H    5.802893    2.224023   58.977615
H   17.593430    6.742556   88.144035
H   96.253616   51.303734   61.104027
H   63.264889   52.899300   59.063297
H   12.254709   81.125809   84.846840
H   77.958893   22.779688   50.239689
H   51.061272   36.715744   51.892342
H   39.467945   38.508621   61.399521
H   16.056824   95.153183   61.045555
H   21.340710   78.053658    8.292781
H   99.259277   55.036827   25.696466
H    1.215394   87.207977   40.255016
H    3.343553   78.066841   34.747086
H   45.383377   45.548981   45.531841
H   29.078186   40.922565   81.055862
H   10.797688   28.536327   44.587135
H   66.177544   26.169334   74.454254
H   67.948868   33.512722   10.450062
H   14.453342   29.115337   20.811335
H   34.594048   42.746700   44.419941
H   57.362183   35.724781   36.446472
H   56.922798   77.499191   64.568596
H   92.440834    9.866127   55.723885
H   31.506971   24.730091   27.037157
H   18.875343   75.112160   76.556374
H    2.686334   30.678202   65.775856
H   76.754356    8.039491   67.051109
H   37.808167   71.025673   63.341732
H   24.442616   50.852249   68.246635
H   75.104645   35.808418   97.657364
H   25.720325   69.062996   22.394566
H   21.741549   90.739296   90.892601
H   13.654854   20.791677   93.961411
H   59.083500   48.467964   48.031258
H   99.798279    6.035042   74.577255
H   25.120626    2.656504   40.441307
H    3.473650   32.607880   20.274942
H   13.716395   21.593168   76.930962
H   91.464272    7.558411   92.315697
H   87.136627   71.816414   41.301369
H    3.444007    8.701851   61.214523
H   84.645256   30.136963   73.523468
H   19.359110   71.412766   82.119530
H   41.815880   79.125282   24.100925
H   47.988464   27.125980   53.579174
