100
TIME:    4.866, STEP:  4866
H   88.255043   75.784370   94.691055
H   66.088203   68.546570   84.922852
H   63.396782   23.983242   66.227882
H   82.293350   32.172050   73.442024
H   51.586731   62.788864   33.766464
H   52.566158   95.936394   60.643291
H   97.943916   89.912918   70.980545
H   37.428291    9.573371   61.414921
H   34.012367   18.447464   93.789177
H   41.864647   86.251915   98.235352
H   47.631561   62.036610   71.031021
H   70.120842   67.598106   46.561531
H   33.557510   67.333595   41.511719
H   14.145768   90.077492   27.544771
H   39.689369   35.376343   16.867661
H    5.872083   86.130814   29.120899
H   32.812447    3.819737   16.359526
H    5.124138   58.053417   30.844805
H   21.057999   82.488159   19.722445
H   61.415947    2.481020   47.632515
H   75.521385   71.792267   25.173012
H   28.888504   50.543671    4.893422
H   20.775917   55.047356   93.127487
H   66.937363   95.039764   45.681877
H   55.547760    0.260483   72.476357
H   24.364347   82.805878   32.841801
H   42.478371   40.203350   96.514687
H   21.963158   83.568146   27.615915
H   16.977928   90.573814   27.153202
H   87.577774   70.406120   70.221687
H    7.562042   58.398380   24.396507
H   72.999458   18.070847   48.794044
H   13.111391   12.462774   36.164665
H   83.701263   27.782776   66.754326
H   59.815842   91.087692   21.034073
H   95.631058   66.554649    4.128831
H   46.511459   26.332890   91.887192
H   62.869175   69.905190   65.820351
H   39.677670   75.395744   72.760803
H    4.870993   56.645355   20.880716
H    2.695578   23.148161   56.986553
H   94.292107   30.246061   31.408175
H   53.154545   92.679901   52.949448
H   68.631943   94.318481   56.507225
H   34.566456   39.903465   72.507225
H   15.309540   55.728321    2.928662
H   79.750290   89.467003   72.175652
H   56.499287   45.488190   69.658440
H    7.270286   29.447613   50.368454
H   27.932293    4.794981   43.329262
H   43.173374   99.862167    4.722279
H   41.610390   12.210573   54.619148
H    9.806817   50.223450   20.258886
H   64.002953   27.810478   46.539024
H   53.356995   85.035408   41.735279
H   99.654678    7.415163   26.976685
H    4.736036   49.140434   18.784676
H   63.723038   17.353922   88.217636
H   74.047142   44.369873   37.917519
H   37.912716    1.804085   25.209969
H   66.651672   52.279415   35.004097
H   26.211401   82.650040   75.184174
H    4.412633   75.235886   99.794220
H   77.179726   68.270325   95.026001
H   25.461603   72.205536   48.718678
H    2.419963    0.369911   33.899223
H   97.159760   16.593388    1.992004
H   44.237938   95.828384   98.825539
H   99.421585    0.146611   55.046700
H   28.971811   92.887695   91.486725
H   67.515038   64.317383    3.775611
H   72.742462   90.031738   12.887103
H   89.718658   77.613441   36.984627
H   23.089214   41.449543   14.032448
H   96.781380   35.577007   70.273773
H   40.694206   19.437273   68.508286
H    8.755850    4.793392   77.106270
H   60.593853   32.544247   83.170937
H   94.856209   39.225750   71.975517
H   60.887360   43.941181    1.711067
H    6.092068   79.622665   70.818398
H    6.426513   76.006241   79.885399
H   25.659830   88.496033   93.356689
H   84.922668   28.553480   18.983452
H   15.395160   44.514320   76.048317
H   39.301319   87.790840   79.692947
H   92.143852   49.555084   55.573212
H   34.280563   15.711012   45.139030
H   56.667099   23.240980   88.393196
H   36.118732    9.073875   98.166168
H   23.159477   36.181911   36.222820
H   38.333622   61.448929   26.245520
H   97.373665   73.525673   95.299789
H   17.544754    8.391110   54.907070
H   72.460579   13.862480   27.901043
H   95.833206    3.579159   16.113976
H   76.362267   46.930340   57.340897
H   24.726858   57.668762   78.168556
H   76.908142   57.825710   37.458755
H   41.456470   53.762394   28.982958
