100
TIME:    7.770, STEP:  7770
H   91.869133    9.475083   92.032364
H   85.888565   25.908596   68.029861
H   13.330126   32.908310   32.131611
H   82.780777   12.526180   14.262074
H   25.573130   95.557106   55.028320
H    7.524537   92.790276   48.235550
H   45.743916   86.005188   98.077271
H    9.179619   60.804623   94.777733
H   62.626442   39.239639   10.992687
H   62.533485   27.950686   11.945686
H   77.508560   78.885483   91.303833
H   59.284012   13.160368   39.851540
H   48.282661   91.678360   52.945087
H   70.357323   81.126564   48.541225
H   74.980415   75.978134   77.241730
H   89.107849   32.136475   88.062775
H   99.289742   95.896667   80.722107
H   67.224747   16.750580   30.179646
H   66.281708    4.312688   72.714569
H   83.179184   40.808178   45.350319
H    3.193900   82.689331   46.351330
H    7.297806   54.398773   57.591003
H   82.001503   31.429583   10.040851
H   97.112610   29.780001   30.005688
H   51.684151   69.961136   93.923134
H   10.971157   97.043869   59.691734
H   92.063065   19.486708   54.139324
H   76.931206   19.117025   23.606718
H   80.121849   54.047047   89.880577
H   98.930191   98.531601    1.081768
H   21.853296   18.806881   94.641411
H   56.359798   37.834072   79.956261
H   17.664965   99.992714   97.779915
H    6.402343   61.648567   44.412964
H   87.581734   71.372002   97.784042
H   48.070301   94.008209   94.998360
H   25.043434   19.981291   20.710783
H   42.843544   16.755978   70.747749
H   17.096928   12.122370   91.341911
H   31.346622   84.782043   49.362473
H    4.227557   22.790808   25.402311
H   45.400719   72.073212   76.631615
H   78.155853   10.097782   62.707447
H   83.202744   43.061546   40.444736
H   82.665535   25.328327   21.010036
H   77.827843   11.115821   14.727751
H    2.439273   47.397530    0.047625
H   56.661861   75.398468   49.341106
H   92.156380   88.938972   34.525200
H   88.872803   48.997807   40.254005
H   42.968067   19.500254   35.333710
H   82.750320   42.740574   63.984711
H   70.045540   67.061829   51.601540
H   96.759155   80.430313   74.685196
H   22.136108   39.530586   66.436768
H    3.273285    4.360437   28.117661
H   88.836395   65.346352   94.979012
H   47.485275   43.107002   13.417224
H    3.077301   67.079491   14.983017
H   46.278290   25.016010   42.613304
H   49.838421   17.230965    8.586373
H   23.145454   55.620010   43.786842
H    1.565328   77.072052    0.658234
H   76.592461   84.089539   16.182362
H   40.727600   40.267384   19.155313
H   24.024361   56.003593    5.607061
H   64.166870   16.991993   42.198345
H   43.638786   61.912041   37.653534
H   44.158585   91.483696   72.912781
H   87.829414   38.910931   85.363556
H   75.299675   66.731415   68.945747
H   33.427052   93.604881   25.584402
H    0.372061   33.976627   62.529766
H   59.157284   57.655186   41.486084
H   36.759247   39.756107   90.428406
H    9.342786    5.556463   73.106087
H   72.464561   53.288063   28.543009
H   97.029053   42.660854   43.548298
H   34.112762   30.695782    4.369520
H   18.477173   85.750420   51.528725
H   62.925636    9.666574   44.385193
H   24.351402   94.860214   36.966129
H    9.344163   37.059971   69.919357
H   84.712685   77.054810   53.747036
H   73.995651   62.859234   94.538750
H   72.466843   94.458649   81.355515
H   86.095512   38.410179   94.046852
H   80.991997   83.311218   15.015137
H   16.933514   61.550987   64.642220
H   79.366760   89.596451    1.976900
H   42.003132   92.989571   97.549973
H   53.200214   79.857803   81.575493
H   83.525543   60.659359   19.870607
H   98.206856   84.569786   50.717922
H   22.253471   53.741112   94.633514
H   35.691757   88.903625   66.118294
H   45.856041   13.583930   90.328636
H   23.279421   70.917778   22.898806
H   38.568047   70.354942   94.217781
H   21.836306   79.241928   49.232044
