100
TIME:    2.831, STEP:  2831
H   25.873058   62.404198   96.554153
H   22.520897   58.238449   56.578602
H   28.417112   77.577698   90.106590
H   81.951782   16.012945   84.986633
H   69.814041   99.674652   88.945221
H   84.120247   98.141060   59.110058
H    4.598430   52.501244   11.840827
H   97.375275   33.519337   48.261501
H   84.036552   14.104393   21.885284
H   97.478127   57.032326   18.547998
H   36.922302   80.154053   67.052353
H   47.790504   65.594086   91.415779
H   63.181015   90.427811   43.750420
H   14.906453   96.349922   72.681145
H   14.935863   17.151026   14.688212
H   87.695572   64.119476   98.043312
H   96.454872   69.218185   31.105448
H   61.642067   57.029137    1.397800
H   89.359901   97.115753   12.511347
H   16.247795   45.694675    9.080225
H   96.281174   74.382843   80.403915
H   33.791077   47.842178   78.192490
H   47.946098   71.597878   51.352509
H   56.010941   70.635101   96.818321
H   28.330585   61.647903   57.449150
H   33.678097   43.254154   23.822115
H   17.958149   24.795237   56.144543
H   93.670647   88.581230   60.351780
H   72.728027    5.942705   23.349020
H    9.546927   20.773087    8.445251
H   27.472170   75.916275   85.399239
H   44.508186   74.292671   37.184196
H   69.770355   61.352776   52.835793
H   97.717110   14.278402   52.485138
H   10.400001   44.918304   97.117622
H   18.698845    6.874164   10.908269
H   51.328285    0.857491   31.536924
H   46.979897    7.138736   22.217648
H   25.574928   19.734022   69.967346
H   96.545135   47.154839   60.772488
H   41.772610   53.320370    9.043393
H   77.187004   38.915428   35.803375
H   35.625896   80.476608    5.960167
H   98.581223   60.220139   57.533424
H   11.087698   20.195164   98.366798
H   41.563801   16.913776   94.664375
H   63.851711   78.796844   52.635147
H   56.390606   24.531103   43.744148
H   47.781258   97.986870   31.543776
H   85.257195   73.834099   85.660797
H   43.328632   96.328354   83.266449
H   42.713444    1.043102   88.211723
H   67.604668   38.423828   38.449364
H   11.135670   61.020203   56.740448
H   15.383875    6.685302   24.427401
H   97.108444    9.556705   96.252884
H   75.724144    7.859530   25.239220
H   15.254262    9.534410   40.636429
H   13.552299   58.385555   94.145668
H   72.201080   45.388638   83.090218
H   38.282753   46.916569   93.669235
H   98.436882    1.591850   67.262527
H   66.258904   14.100065   39.340744
H   37.438995   57.194435   50.280987
H   44.689960   34.736553   59.207535
H   27.432259    1.535541   13.575727
H   60.432167   46.236797    3.742337
H   84.809135   79.444824    1.540771
H   97.997643   46.368721   82.677345
H   87.740784   90.533760   95.771851
H   32.136375    2.778074   28.189632
H   40.538185   57.569748   63.895622
H   22.405306   78.272972   89.159416
H   67.890831   70.229309   34.953804
H   98.666283   32.673679   16.006920
H   92.583138   89.013298    5.439777
H   23.991064   81.174942   41.117420
H   64.985855   65.609871   70.786682
H   97.270584   45.203190   49.266701
H   60.687782   54.772739   77.028061
H   66.281815   58.569653   49.190708
H   53.737938   62.716141   50.051247
H   96.916733   54.510895   99.538757
H   44.918285   54.413910    4.849360
H   14.482894   71.804703   73.318764
H   86.135376   13.040939   38.376537
H   56.230812   97.516151   58.536331
H    1.528311   78.637772   66.302406
H   14.433790   36.546120    5.038584
H   16.039810   92.799271   25.419716
H   39.878815   26.298054   93.247269
H   87.756409    8.414043   87.466835
H   66.926498   12.460487   37.929573
H   20.854359   84.954109   17.698837
H    7.643376   96.145233   81.140587
H   27.750610   83.938545   21.224350
H   37.890549   30.145672   74.376106
H   17.258940   40.341949   10.737906
H   73.851189   49.053623    7.911345
H   15.055967    5.986675   25.020006
