100
TIME:    0.442, STEP:   442
H   87.432045   81.487709   98.741348
H   88.975166   28.709251    5.881651
H   87.358612    5.703435   18.150063
H   81.550797   14.439528   15.935390
H   91.212097    8.185769   53.720573
H   21.162354    0.732588   22.518038
H   29.805714   91.183159   25.017748
H   85.145966   26.840725   67.611977
H   42.762794   43.796951   72.265724
H   62.761421   22.732285   24.997919
H   59.141266   84.027451   97.174065
H   38.971066   45.845772   61.466911
H   15.147124   34.965897   81.197441
H   33.196583    3.714479   90.876015
H   85.878426   30.542273   29.525400
H   83.751923   73.077400   96.350082
H   88.530418   11.227158   13.598111
H   10.589778   73.206146   84.222946
H   52.146942   96.894318   86.649139
H   80.684853   96.264709   46.342155
H   38.047638   12.214409   45.246002
H    4.729623   44.683327   81.620369
H   79.842690   91.027458   19.703911
H   77.974930   41.982853   74.248764
H   13.775331   51.120594   39.822464
H   44.632298   14.439450   47.744453
H   23.964243   24.103222    8.737097
H   95.246696   77.070251   81.384842
H   20.782150   89.193901   36.278046
H   17.941839   79.900253   18.526276
H   33.488773   61.678932   74.435722
H   93.665619   40.299202   58.345924
H    1.491024   36.142952   37.615807
H   96.777351   33.215942   53.130241
H   69.785225   25.508499   51.642265
H   10.985131   19.207094   19.123472
H   22.192898   88.348488   43.293102
H   45.720886   50.864361   53.631161
H   30.849163   71.072594   99.762466
H   21.562317   70.805367   72.810539
H    5.036716   71.345528   52.754215
H   91.896721   31.694834   23.565908
H   15.048251   66.150482   33.399513
H   51.134476   20.178938   23.948318
H   18.315598   14.452731   93.930237
H   72.306389   71.513237   85.051598
H   40.747181   49.585133   31.400091
H   56.263020   99.934097   95.926422
H   77.949089   95.843430   26.842016
H   35.159939   37.476917   52.749901
H   43.510899   26.971594   58.077259
H   26.612780   22.724312   45.046089
H   18.047808   24.571594   77.200111
H   66.452667   99.990120   51.320393
H    5.571333   97.252533    4.156713
H   94.119278   12.067423   77.580078
H   24.272911   76.793159   98.025215
H   93.146667   35.145439    2.169680
H   25.136673   57.444305   77.551498
H   29.851257   61.762566   51.038048
H   87.582108   58.014397   79.933563
H   83.223694   23.831284   75.356689
H    4.212910   77.012306    3.235026
H   73.391487   44.198853   15.139425
H   49.866692   25.542030   36.723663
H   74.192635   20.299976   72.320351
H   52.106346   63.641163   88.401596
H   49.833870   42.816025   87.332756
H   78.932030   18.027016   32.511013
H   39.340157   70.376122    0.801305
H    7.996321   65.330956   56.846317
H   37.522190   36.856483   88.982796
H   78.172379   96.444527   50.415806
H   20.462189   21.408731   76.939232
H   83.482101   29.272612   34.904957
H   36.108059   35.900490   66.187393
H    7.085328   88.234978   98.854919
H   52.746292   21.819088   38.850513
H   82.739006   52.207790   22.616913
H   77.848984   84.882423   82.842529
H   19.531414   33.854351    6.406229
H   74.487373   47.114151   49.819931
H   45.762325   14.634856   71.998199
H   80.575653   49.984104   23.058327
H   30.808424   21.236053    4.905564
H   41.120174   25.289238   72.477043
H   96.674889   71.215919   44.619411
H   63.070496   69.906441   91.144875
H   64.855659   69.562340   24.584427
H   27.257401   91.099136   40.013165
H   42.111027   97.298889   42.795971
H   10.990351   28.748358   41.945564
H   13.643570   40.874527   53.109245
H   89.948524   40.043304   56.619419
H   48.950260   10.137325   26.242954
H   30.429001   78.277214   44.619148
H   27.518244   93.046013   11.769123
H    8.488032   20.001038   48.963577
H   87.656303   38.755581    8.028172
H   66.691177   67.351524   55.115219
