100
TIME:    6.487, STEP:  6487
H   78.633133   27.131330   93.206985
H   21.320240   56.386280   87.131691
H   91.272293   40.604301   47.196133
H   82.565430   65.385956   84.588501
H   37.067581   92.719086   89.816696
H   27.423542   94.180244   21.175262
H   12.987071   99.369957   97.744926
H   10.020889   49.809208   12.578475
H   94.165031   62.594788   91.753075
H   97.576363    9.527843   61.710026
H   96.850098   27.260870   14.889175
H    8.248718   48.850330   31.176781
H   30.117874   69.308754   80.440605
H   33.882896   85.081123   50.904438
H   59.397102   90.582024   38.942493
H   40.696213   44.352333   94.562988
H    2.461077   11.036222   63.925545
H   39.788692   79.181717   74.651405
H   46.302235   50.492294    5.123569
H   17.747192   68.051064   57.997734
H   79.328949   10.415447   81.173897
H   84.295349   52.695572   66.850311
H   99.131401   41.863869   46.750305
H   16.321777   14.431612   25.292082
H   97.572701   71.709106   84.447853
H   16.974916   34.887642   80.408501
H    2.697235   72.821548   28.679403
H   85.187454   59.230934   81.199234
H   52.224586   37.643078   50.527771
H   49.733128   30.286766   99.086960
H   71.361290    3.757911   96.148216
H   75.350433   73.280838   98.730003
H   27.292305   93.862984   82.197144
H   52.193260   79.227921   98.465134
H   19.512802   68.513130   19.724886
H   36.541119   93.518089   99.031227
H    1.987125   66.967407   19.615393
H   95.873802   40.238621   80.210808
H   71.255463   40.074883   15.673853
H   52.190029    4.891638   48.418575
H   91.911560   78.766960   95.176613
H   53.524979   67.041916   11.133225
H   67.114410    2.401437   70.036003
H   65.125336   21.526815   15.000487
H   93.956703   75.947037   11.220210
H   94.390007   86.646439    9.515368
H   92.414352   77.622879   87.733650
H   56.585857   62.183975   69.956726
H   54.649239   95.197243   85.705185
H   61.935566   29.469088   29.960501
H   43.056164   43.365799   21.809673
H   20.391685   61.795166   48.205086
H   43.432796   59.622559   26.113443
H   26.468353    1.358645   18.069641
H   24.290577   27.094330   55.524761
H    1.675310    5.710029   71.794006
H    7.500394    2.366626   72.955101
H   43.019928   64.270439   46.465805
H    1.893611   12.861611   13.476141
H   30.943764   26.400394   79.104881
H   68.905540   76.895279    8.619093
H   68.681618   67.561996    1.836397
H   14.462454   64.621864   88.637390
H   88.490402   77.100540   51.019680
H   89.802811   42.738461   99.674629
H    2.840815   19.784935   29.745909
H   67.104324   72.632996   80.254227
H   32.264427   88.535316   76.318710
H   80.213753   83.671890   53.380390
H   61.807426   74.420341   88.073364
H   16.040630   54.025818   84.333290
H   39.084293   36.234207   31.569221
H   84.026367   97.434082   95.419739
H   87.405251   38.857059   17.718012
H   74.934319   37.889683   93.156265
H   79.015465   23.328217   59.435486
H   55.941006   64.335472    5.789491
H   36.751385   26.550856   72.693474
H   72.587074   34.464359   90.056435
H   81.396683   55.642220   62.060326
H   37.813187   96.392654   67.701859
H   28.076582   86.539978   44.301838
H   28.192223   15.603597   47.733009
H   96.445198   67.265770   70.929161
H   36.466652   43.120094   18.910355
H    1.989580   47.333282   92.260056
H    0.406779   31.695045   32.868645
H   60.357811   85.977722   28.317726
H   90.306015   32.985878   75.135506
H   92.800522   42.383976   56.109886
H   89.497398   23.711582   70.455368
H   58.271206   83.363953   57.126541
H    1.282800   22.161137   20.654245
H   74.209999    6.731822   64.207443
H   44.436394   68.664505   65.150513
H   29.721222   39.566498   32.387115
H   47.694572   39.955185   64.116043
H   25.755915    7.436326   48.654114
H   99.687523   64.814644    1.682043
H   42.143131   12.168388   72.827797
