100
TIME:    6.137, STEP:  6137
H    2.302487   59.227989   93.527420
H   30.985348   37.419224   65.064430
H   85.253464   15.424361   51.305706
H   82.506683   79.805511    3.772216
H   40.202499   64.665039   99.306900
H   32.852238   94.559425   86.514091
H   31.330505   75.737907   70.374474
H   37.530197   19.530811   44.715321
H    2.768737   96.245758   13.784202
H    7.136976    4.501926   48.006107
H   29.406235   13.177904   48.602242
H   21.608170   31.306538   56.090523
H   52.452164   90.473457   15.218437
H   51.213066   86.159920   24.268314
H   55.146004   21.845734   55.773319
H   54.768631   74.964516   23.616528
H   30.606178   87.885796   32.063667
H   32.303875   96.212814   86.785194
H   40.852177   35.808380   86.683243
H   27.175980   75.485146   34.168083
H    0.098451   45.260036   90.674782
H   50.740509   52.230942   96.656067
H    3.804787   44.710396   56.763885
H   48.842571   10.244600   51.286991
H   10.090432   99.464081   81.863014
H   18.570414   45.235008   13.321850
H   32.878212   87.369278   21.733984
H   14.719840   42.894112   69.631546
H   44.614265    5.888899   67.072876
H   36.312260   38.949181   71.262558
H   57.586700   72.371559   23.839027
H   53.251133   82.952621   31.131203
H    2.638508   19.470129   50.666382
H   37.405205   11.303252   13.209414
H   28.222565   95.008980   98.428253
H    6.116794   66.104912    0.131450
H   68.416359   79.784790   92.037025
H   10.340025   46.644642   55.511562
H   86.027496   47.701225   49.591209
H   85.156448   37.657864   20.880434
H   15.831226   66.756004   86.930763
H   83.020981   65.669388   93.264610
H   64.102325    0.301821   44.755745
H   87.475647   15.652182   80.778893
H   24.316803   89.757767   81.269760
H   98.908134   79.970718    8.093439
H   89.679977   58.589066   84.374428
H   56.567165   58.579086   48.300694
H   44.419365   24.183723   99.665451
H   54.589603   24.140528   54.433578
H   43.080196   77.155624   18.120670
H    3.379766   94.271530   71.180244
H   36.172283   57.593140   46.441959
H   34.572678    7.069724    2.626029
H   52.158073   96.421875   52.547390
H    1.239385    6.078195   83.708832
H   85.310982   12.466296   39.667290
H   69.081940   97.323265   55.480698
H   74.288315   98.071815   40.344643
H   54.039085   99.497375   89.059715
H   46.827595   93.173355   35.906948
H   81.103798   70.819748   17.673386
H   90.701332   88.504921   12.637939
H   64.457809   75.193954   60.523235
H   75.911972   70.693069   67.081093
H   24.340649   37.184532    9.050952
H   95.185074   60.532017   63.356644
H   56.441216   68.518837   59.586689
H   62.771244    8.820641   75.331451
H   54.717812   56.816711   88.810364
H   27.155704   77.839447   88.530983
H   67.942459   47.849960    5.943801
H    6.846979   14.745949    4.393143
H   95.111702   61.007099   38.513298
H   58.059040   37.390339   66.624283
H   70.742912    0.896356   82.986908
H   24.154427   94.631447   99.583824
H   20.307751   49.437576   53.364456
H   55.802944   35.492420   86.152473
H   98.561295   74.708076   92.213219
H   30.963900   92.771744   46.782825
H    1.811858   84.270096   73.580894
H    6.052894    9.750993   14.399836
H   72.364540   37.315819    2.897643
H   53.508430   65.013664   52.839035
H   10.045589   34.475845   67.955093
H   77.031075   57.142891   16.179342
H   54.728844   13.984369   31.946648
H   83.042831   52.473640   77.998055
H   23.745173   56.784840   43.599586
H   75.173973    4.812675   63.064007
H   32.374752   57.040253   50.458832
H   78.847061   11.658895   93.588211
H   40.384655   85.497871   40.607437
H   50.487267    0.013696   57.107609
H    0.812599   53.387909   50.464966
H   75.476250   19.870085   84.244675
H   26.431498   90.117523   55.679642
H   16.360321   63.304493   30.999123
H   20.404314   21.149902    6.543291
