100
TIME:    8.690, STEP:  8690
H   29.652470   25.106756   91.190079
H   60.479630   75.763199   26.036896
H   29.144030   99.097885   21.332771
H   82.935196   74.622185   63.835861
H   17.329264   69.299072   30.082912
H   93.259033   91.793571   39.345757
H   97.527855   48.129120   70.022484
H   36.869431   40.397022   10.306226
H   40.011086   50.784637   53.083500
H   37.405312   41.160526   47.969368
H   91.932404   15.903316    2.685056
H   24.167740   59.275372   74.365486
H   89.617111   35.992805   61.518120
H   24.804289   78.290871   18.552547
H   86.154732   93.799202   32.998604
H   52.117493   51.669823   11.694752
H   25.309029   56.745579   64.473335
H   86.892105   71.983604   98.289139
H   80.614594   42.910320   21.185123
H   58.389515   21.272253    7.988153
H   48.599800   91.100006   21.383101
H   95.499107   55.620087   79.244522
H   69.718178   23.950792   83.718765
H   11.631239   40.785858   61.680225
H   18.780289   96.999039    0.717221
H    6.632732   69.922287   73.115051
H   12.730154   81.244583   72.392624
H   99.305298   62.059528   54.019264
H    0.126128   37.516476   46.390587
H   34.205467   75.761826   74.218781
H   58.063557    1.305357   21.853935
H   14.449072   12.417870   94.787270
H   82.469009   32.680092   80.660782
H   45.275681   77.336090    5.656141
H   64.685616    1.715084   53.760220
H   28.044046   66.070404   92.106514
H   13.283414   86.287849   93.203453
H    4.819395   99.918892   35.670151
H   78.265068   92.078087    2.187193
H   44.692375   98.654152   21.745317
H   41.351151   54.355446   47.077114
H   67.868011   75.681000   23.601166
H   86.073334   15.616505   29.160961
H   24.458561   58.508408   30.396610
H    2.863094   89.034935   99.737480
H   65.951622   28.659920   18.465391
H    9.631600   97.429268    8.882816
H   56.718014   84.874176    6.265379
H   19.048630   12.744965   97.825378
H    8.186972   63.000797   75.928520
H   42.904896   30.680466   45.034027
H   27.463308   57.372166    3.591513
H   89.123299   72.396301   98.170486
H   75.449341   65.423599   15.282031
H   48.884407   20.154661   74.255981
H    4.419144    3.392687   96.798676
H   47.159424   38.800331   82.478706
H   78.980652   56.224068   89.719872
H   75.638817    5.951615   44.354706
H   85.568459   95.729721   16.446312
H    7.872116   74.444946   36.855053
H   90.492821   47.056778    2.158852
H   64.026154   14.292790   37.571075
H   39.766598   89.101135   91.204910
H   77.245132   66.789154    4.830418
H   67.508492   10.267730   60.004978
H   90.353165   48.796932   86.614853
H   80.087936   14.527654   81.634857
H   90.010010   25.378349   15.210337
H    6.514318   85.120499   83.412262
H   46.082111    4.131886   57.911812
H   57.666054   63.058006   93.019699
H   40.387314   88.468071   38.938763
H   38.907345   99.430336   86.823708
H   81.077484   41.110783   60.183277
H   31.094263   64.521843   11.203073
H   56.020340   73.659424   44.861542
H   40.247898   82.507652   94.363342
H   78.229713   27.993450   14.636625
H   73.359703   35.634453   72.269981
H   80.936501   19.184397   99.372375
H   93.387070    0.827249   59.997658
H   67.537254   52.445713   57.535580
H   48.006859   55.781471   69.719292
H   29.200119    5.309774    5.355629
H   51.293194   28.251259   45.243256
H   47.540302   71.518364   37.915993
H   95.788139    9.691454    5.476068
H   36.028080   10.327303   57.117805
H   98.025620   51.747498   34.863731
H   79.653282   42.664867   16.979027
H   21.270899   49.050232   99.109062
H   42.499180   88.259087   91.015625
H   87.120224   40.385120   12.751833
H    6.344902   71.333054   15.773558
H   11.680007   52.573059   18.599373
H   72.831078   66.380028   37.419090
H   21.503603   16.441898    4.428194
H   94.741631   74.327721   17.158459
H   78.980179   55.632359   60.605732
