100
TIME:    2.050, STEP:  2050
H   78.689362   34.025803   97.269180
H   44.245796   15.892118    7.313517
H   14.992483   21.389065   99.270851
H   81.820694   48.190636   27.795296
H   76.809387   37.074055   10.121218
H   96.228035   98.987175   81.764366
H   45.529400   99.762428   50.765526
H   58.760338   65.951965   19.969414
H    3.235070   89.194168   71.047874
H   18.819048   45.818321   87.965233
H    9.569016   48.728626   42.283001
H   77.598450   26.446367   47.007484
H   12.862319   37.679649   21.375874
H   53.577446   98.757179   13.245411
H    5.435145   86.913177   52.231758
H   19.098827   32.428719   62.873795
H   59.250519   17.566780   60.000763
H   44.952148   95.008980   28.476463
H   77.192528   64.355606   71.363251
H   37.287460   62.277340   55.906166
H   42.626724   52.134037    1.604221
H   58.915226   46.805702   44.701553
H   58.373573   77.949699   73.697098
H   28.574333   61.268253   54.824219
H   56.263908   23.590569   51.687225
H   37.259190   66.522964   97.026009
H   85.305214   57.262753   40.646336
H   59.567986   52.126781   34.533619
H   55.746140   35.083687   60.267540
H   79.599739   40.102646   46.357418
H   96.742928    5.879286   47.194431
H   95.195557   95.874565    9.485268
H   14.756519   18.494473   82.477142
H   64.718620   85.852554   85.388290
H   29.815529    3.955789   49.558228
H   50.794323   45.522671   13.592599
H   76.420197   29.461504   69.997314
H   79.260216   21.433270   67.103065
H   58.561623   36.746544   45.644714
H   70.105568   20.268862   99.323502
H   95.147087   26.524130   90.641647
H   47.378876    3.861665   99.112656
H   28.898687   75.793182   49.546471
H   48.452553   47.129189   81.171799
H   78.832756   51.006863   31.534567
H   51.639721    2.017384   91.494423
H   57.726223   36.327110   45.140327
H   56.348896   16.490030   95.420341
H   24.954023   62.667263   62.701027
H   68.883080   61.951710   40.284534
H   43.388218   71.729179   75.031723
H    4.759573   73.515045   39.483646
H   51.404678   33.895325   83.809258
H   29.219891   73.760994   22.276995
H   77.560120   38.218884   17.801466
H   96.131241   10.377497   22.839966
H   26.213083   30.395332   50.959541
H   73.409760   83.290207   60.752518
H   51.955185   25.386469   54.104454
H   23.740223   85.357635    5.303414
H   89.015945   83.237129   54.560734
H   26.153278    8.862780    2.597154
H   13.282604   67.358650   92.920090
H   83.809509   52.945984   71.485390
H   13.689345   97.113525   86.473846
H   75.410561   40.361397   67.397346
H   23.093431   19.237165   66.036331
H   38.758354   34.779480   64.204453
H   59.075592    2.486399   31.660072
H   71.914856   51.253021   97.416412
H   56.935890   55.918045   37.560917
H    4.935760   83.489471    6.712651
H   73.327698   16.905651    9.182835
H   85.075310   19.651129   81.370964
H   61.008675   31.560606   56.801983
H   74.123528   38.958435   57.989536
H   53.082245   48.867058   27.304472
H   28.293056   16.675768   27.653622
H   59.816360   47.496922   40.549614
H   98.989388   97.306213   44.311806
H   50.999004   50.489849    2.512834
H   95.136429   57.615616   15.357714
H   47.506390   41.473572   25.152134
H   91.191292   87.582741   76.185028
H   52.511719   20.655022   49.027893
H    4.107580   84.355049   84.141396
H    4.069601   54.301224   21.295347
H   88.956116   41.166504   74.429878
H   98.224800   80.031670   11.427992
H   85.091019   24.932434   97.501320
H    7.917112   84.125351   76.753983
H   29.966921   49.684391   72.582359
H   16.815941   89.057602   77.508621
H   45.368504   37.580257   65.038216
H   21.148426   66.104065   63.193413
H   63.243179   14.779308   61.563782
H   99.883377   85.325905   19.292145
H   14.392039   33.692200   23.235352
H   11.055977   45.687038   73.331192
H   66.553268   26.046825    0.241129
