100
TIME:    4.920, STEP:  4920
H   84.603188   70.832283   94.641617
H   64.596809   71.472504   88.327515
H   64.325134   27.868076   65.594246
H   82.302414   29.947128   70.482307
H   51.103058   67.117203   32.302261
H   51.728588   95.877892   65.991142
H   95.113564   93.559006   75.203415
H   33.183998   14.244998   56.456654
H   32.684944   13.255545   90.390282
H   40.388908   87.027275    0.349727
H   42.608612   64.209427   65.829269
H   68.060081   70.304863   42.717690
H   30.111649   64.068184   36.145996
H   11.472074   89.911049   31.654345
H   40.346077   30.552858   14.271866
H    3.700752   81.407791   24.638271
H   28.470100    7.391357   21.275358
H    6.278887   55.426174   28.972940
H   21.899071   84.753265   22.567217
H   59.961220    1.334261   51.309090
H   72.316948   66.416656   23.707367
H   34.065536   50.615356    0.294855
H   20.054939   54.608177   91.582535
H   61.920010   95.685760   41.671181
H   53.616364   95.978256   72.875160
H   24.118185   81.209839   27.763884
H   37.821678   37.958431   97.585854
H   17.406784   86.088684   29.401056
H   18.152092   95.473167   24.600735
H   89.648422   69.069633   74.514595
H    9.687381   63.240467   20.124199
H   76.409065   16.579041   43.794991
H   16.915142    8.512022   41.029411
H   85.982849   22.833984   64.479332
H   58.473587   87.005722   24.322144
H    0.325236   70.784111    3.958944
H   51.690552   24.355145   96.142197
H   60.637440   68.917244   69.631233
H   37.398144   74.219109   67.527740
H   99.784813   51.589859   25.129335
H   99.005112   25.000868   58.258770
H   89.438896   32.669632   33.944782
H   53.619678   93.003723   56.849731
H   65.183609   95.224854   61.786842
H   29.882479   37.773079   77.128075
H   14.612766   56.758289    3.148174
H   80.172165   92.403648   72.693932
H   56.502171   46.044373   72.999657
H    8.848633   24.975491   48.214172
H   29.064846    5.616896   39.552574
H   43.169254   94.648880    5.291543
H   44.234749    7.199769   51.073997
H   10.926908   50.536560   17.122633
H   62.752571   26.929237   48.921959
H   49.057495   89.768318   42.194645
H   99.722244    7.358360   25.138397
H    8.159341   47.582298   23.920509
H   59.702042   12.254213   86.826767
H   78.306267   46.651459   33.771690
H   34.349438    5.954819   23.674080
H   70.057983   49.768353   30.793999
H   24.295042   82.147415   72.741089
H    8.078702   71.551071   96.091278
H   80.887611   68.564484   93.560150
H   27.604967   67.892853   53.747395
H   99.102776   97.685417   37.092125
H   92.827301   18.460308    4.599234
H   40.507805   98.916641    1.407050
H    2.112954   96.266518   51.659752
H   30.065844   95.603516   91.373016
H   65.800346   60.643280    3.127787
H   68.289703   88.239594   16.840740
H   86.197815   74.942116   35.599937
H   21.900631   38.032108   10.824097
H   99.385139   35.654049   74.367279
H   41.970955   22.898172   64.874557
H   13.658705    0.112994   78.061256
H   63.130871   29.013279   86.152901
H   97.445961   39.067135   72.577843
H   58.239105   41.000004   97.058929
H    7.148764   80.181320   74.045906
H   10.478305   76.358902   75.370018
H   29.075617   89.399109   98.499115
H   88.637970   33.174484   14.051511
H   12.765754   41.136436   70.813606
H   38.058353   89.774147   83.442856
H   95.750389   45.628845   58.148132
H   35.149857   11.387720   44.577492
H   57.787704   20.234503   87.951546
H   31.344240    6.852028    0.096731
H   25.369377   39.097546   37.363201
H   42.329075   65.510300   27.274252
H    0.835151   75.146431   99.475693
H   22.764221   11.666615   58.547802
H   71.527016    9.025337   29.141743
H    0.293383    1.446842   13.324722
H   72.075951   50.029308   54.235336
H   24.925024   58.128540   77.304207
H   74.335693   58.058483   32.935547
H   44.810459   52.376881   23.781000
