100
TIME:    1.250, STEP:  1250
H   32.789467    7.389981   98.001602
H   66.499214   72.519279   56.849850
H    1.241575   63.834026    8.662819
H   81.686417   81.149620   71.647697
H   83.974915   72.950539   31.811760
H    8.632904   99.853874    2.536875
H   87.457863   45.744251   88.204399
H   21.638763   96.743454   93.422783
H   22.900612   66.110977   21.403658
H   40.680000   34.331505   56.640556
H   83.983078   16.538685   19.343485
H    8.129818   86.346870    3.953104
H   63.748383   86.080528    0.889560
H   93.189262    1.223290   52.366474
H   95.704720   58.369778   90.685776
H   51.264740    2.401624   29.279770
H   23.568783   64.661484   87.165138
H   27.856201   33.913300   56.211227
H   64.729149   30.792437   29.217409
H   58.838974   79.268906    1.438484
H   90.099869   31.776001   23.317474
H   82.205925   45.749794   12.819465
H   69.054726   84.456047   96.585281
H    2.902978   51.673527   14.237961
H   84.877190   87.038826   45.785126
H   40.927402   90.363297   72.009628
H   54.290550   90.515945   24.771093
H   27.070107   14.785422    8.090430
H   38.351120   62.501713   98.084923
H   48.923473   59.902451   82.760246
H   65.273201   34.138336   10.498039
H   44.682865   17.977364   83.545326
H   58.407063   77.026482   10.406827
H   30.917351   59.167671   19.090761
H   49.701118   64.429726    0.846064
H   81.237274   82.677933   16.343260
H   99.690697   58.758644    6.960429
H   12.327345   36.075603   10.651173
H   94.524460   53.824181   22.320061
H   45.457169   95.162086   36.381367
H   49.816818   99.073677   71.793991
H   19.278313   67.960213   61.527210
H   22.007818   70.995819   91.762245
H   99.538979   33.719765    2.952774
H   48.226875   82.571732   63.076042
H   61.960766   86.758614   88.247353
H   49.278919   93.170547   38.304390
H   56.306171    8.253336   45.920834
H    1.571281   28.924301   94.610458
H   52.106289   49.775196   96.238976
H   43.449253   48.964317   66.596664
H   65.880547   47.748692   92.001144
H   34.809219   29.256653   30.271233
H   47.744061   86.810310   86.976151
H   41.247803   68.087479   11.013235
H   95.130264   11.218256   50.073853
H   75.495544   53.478828   74.872810
H   32.980652   58.840691   81.357986
H   88.862038   91.583588   15.519791
H   76.530975   23.866835   28.056602
H   38.552074   20.441460   16.936462
H   54.546204   16.310532   38.796654
H   59.020699   21.912987   47.803322
H   28.874136   48.594177   93.201698
H   81.937401   61.009716   11.970895
H   24.555672   80.131905   20.095106
H   87.278427   91.578827   27.412918
H   94.019585   89.025497   25.959829
H   19.201324   59.969299   81.834908
H   55.707039   11.013947   99.100983
H   82.338722   10.350691   47.155643
H   70.898087   10.040344   48.141251
H   25.489746   56.474743   29.696751
H    2.678586   70.278290   28.917381
H   22.439804   30.422300   96.155937
H   55.212002   87.686058   11.820947
H   80.447227   18.205072   13.152344
H   90.707596   68.987526   83.473007
H   21.467974   49.840672   31.626404
H   38.223251   40.876617   13.232484
H   35.343487   42.213482   54.697994
H   35.111523   52.391006   82.253006
H   96.888908   28.119967   48.956150
H   36.158909   19.125711   49.256325
H   91.464355   70.696930   26.578865
H   22.521725   54.970852   28.587196
H   50.639397   12.467751   83.147858
H   76.077698    5.216665   82.748756
H   81.623238   24.573957   17.972946
H   55.821426   57.848694   68.900246
H   75.177681   40.927929   59.859447
H   70.774300   89.518333   57.338448
H   65.486351   65.082993   15.618176
H   68.045845   89.054497   11.100152
H   34.981388   37.762474   44.809624
H   97.166428   46.369499    2.884665
H   63.383194   39.415264   65.300446
H   11.454722   26.880676   36.036514
H   49.164848   42.238552   40.344204
H   16.870651   46.596478   77.292915
