100
TIME:    9.617, STEP:  9617
H   66.963531   40.096718   90.341385
H   34.877365   25.994961   84.487846
H   45.078259   65.789406   10.450907
H   83.090790   36.430962   13.021535
H    9.022673   43.601944    4.950188
H   78.887817   90.789284   31.149258
H   48.942326   10.723262   42.515102
H   64.009064   20.594982   25.192505
H   17.223656   61.656616   94.731209
H   12.083162   54.470875   84.265175
H    5.705085   53.201889   13.389143
H   88.786522    5.741110    8.380806
H   30.505585   79.884041   69.395966
H   78.905396   75.433601   89.097710
H   97.414070   10.994972   88.418968
H   14.844059   70.590927   34.746155
H   50.765114   18.061165   48.861801
H    6.720923   26.875526   66.151932
H   95.056534   81.798477   70.022797
H   33.416698    1.586097   71.102684
H   93.589813   98.814705   96.221237
H   84.371506   56.850693    0.301920
H   57.341393   16.415098   57.197083
H   25.499561   51.875458   92.832001
H   85.625839   23.484108    7.559986
H    2.260015   42.594345   85.879509
H   32.793999   42.709972   90.780991
H   21.087404    5.328756   84.659416
H   20.283733   21.621443    2.571961
H   69.751595   52.818802   47.912239
H   94.544395   84.430634   48.512665
H   72.980606   86.804306    8.970177
H   47.766594   64.856888   64.172264
H   84.442902   92.382103   66.602501
H   41.615288   31.528114   10.158256
H    8.626974   38.678394   89.192665
H    2.194841   52.340096   66.247330
H   66.501503   82.959160    1.087140
H   39.135784   71.879173   12.353802
H   57.378803   11.871041   94.680008
H   77.997833   86.165176   68.916832
H   89.745247   79.316879   70.922844
H   94.051056   21.178864   96.119225
H   65.273476   74.070290   21.032871
H   22.450140   52.464115   79.065262
H   53.990959   46.340374   22.231470
H   16.879307   47.846180   17.784906
H   56.774593   94.421982   63.622639
H   46.143181   35.970150   60.850014
H   27.643988   77.116905   11.111835
H   44.830753   41.334297   51.751160
H   72.515167   71.353577   42.740028
H    8.348446   77.771362   44.332527
H   53.980690   50.296295   56.187630
H   75.074898    1.392191   82.134689
H    5.573721    2.417573   65.241409
H    5.928881   12.052069   70.644157
H    9.954528   68.680077   65.843285
H   48.752316   45.123604   73.188911
H   24.396358   66.983841   90.080238
H   66.352203   31.336603   64.585152
H   57.591789   38.428391   60.218330
H   26.961132   51.040421   74.005722
H    3.421559   94.150864   66.041138
H   14.037395   92.748726   91.157646
H   10.562296   64.184044   14.816911
H   15.978531   80.845917   31.371666
H   16.053986   67.543892   25.950821
H   36.212296   58.770050   57.072552
H   25.341248   31.681292   81.446121
H   16.641354   41.056896   46.793922
H   81.330254   32.278709   60.966778
H   79.945816   42.613613   15.168262
H   18.503330   40.760105   31.743494
H   25.730898   42.475765   30.468893
H   53.011780   23.931866   48.826660
H   40.211861   93.423996   61.304985
H   83.796181   21.896767   45.561714
H   22.684034   25.270557   24.983385
H   27.898323   85.135353   92.408180
H   99.084404   28.774637   54.778419
H   62.946602    6.845019   82.445274
H   26.169542   67.948524   45.817989
H   11.783772   35.107132   85.053032
H   84.063751   47.318245   15.493850
H   29.955616   62.304710    9.616925
H    9.452608    4.117667   82.118797
H   10.695976   35.515358   95.867783
H   55.265141   58.712959   49.536140
H   16.066633   13.605782   67.999008
H   17.590597   92.720642   36.555565
H   89.859512   18.769804   16.769632
H    1.921856   16.071989   62.701958
H   74.719643   96.473557   78.314110
H   90.317657   88.297127   37.073097
H   88.246338   15.967613   70.718307
H   99.250481   19.578217   84.105377
H   19.714273   62.307926   85.814354
H   50.581261   78.330727   39.513340
H   36.560059   31.847691   71.304489
