100
TIME:    2.363, STEP:  2363
H   57.522125    5.322231   96.982620
H   35.539146   32.862503   27.057241
H   20.372648   43.907349   95.598106
H   81.873230   35.295433   10.638519
H   74.005875   62.162388    1.634861
H   91.375618   98.648079   12.761341
H   29.126015   20.898247   75.242531
H   34.159157   93.031891   91.230888
H   95.540886   59.100586   51.345333
H   10.266424   50.312538    0.220486
H   80.454529   61.322941   12.133707
H   65.653671   42.135529   24.727831
H   92.952217   18.742805   90.266075
H   38.079323   97.792427   37.065716
H    9.242611   58.954468   37.184967
H    6.512906    5.052442   36.892349
H   34.085770   38.265968   88.498825
H   51.640938   79.787865   17.624195
H   82.068825   77.484833   87.854782
H   28.855431   55.631535   77.216682
H   24.052856   20.973019   93.107956
H   88.923462   47.220901   18.046967
H   54.194572   75.404091   64.742096
H   99.493179   65.022186   31.577034
H   45.068962   98.767181   53.996422
H   35.824001   57.197178   67.687035
H   58.315529   44.250538   46.857525
H   33.159088   66.736565   44.880558
H   62.551941   63.481789   45.471489
H   91.601830   32.355972   71.240379
H    9.056520   33.948956   22.428017
H   14.958290   87.225227   80.509331
H   36.804028   95.594414   10.674657
H   77.943367   57.167892   72.201752
H   22.034229   80.295380   68.617439
H   78.007980   70.111320   12.516805
H    6.441819   17.997908   94.660583
H   66.322029   15.704456   89.192070
H   45.330818   29.929747   15.320017
H   40.625210   90.966942   23.949728
H   73.755379   37.263577   98.015793
H   19.248230   17.909843   13.817278
H   31.594740   77.670151   72.154533
H   28.465200   52.375626   11.775954
H   51.682278   38.658512   58.319435
H   47.601612    7.987385   92.764839
H   60.191891   53.345917   48.139816
H   56.365612   19.712637   14.786934
H   34.102455   36.745518   50.214172
H   75.445305   66.714409   18.393734
H   43.364338   41.511421   78.331940
H   19.969942   44.470577   18.934902
H   57.897652   35.710205   65.631798
H   21.972309   68.655449   36.088348
H   52.642632   65.659256   20.456923
H   96.522873   10.048550   12.184708
H   46.054981   21.363914   80.728355
H   50.102875   53.731537   52.690628
H   76.641167   38.611813   30.074102
H    3.086097    9.415281   96.401253
H    8.760204   68.679878   30.157757
H   15.045494    5.948822   88.435928
H   34.513340   46.014702   71.447189
H    5.301859   54.648628   62.988598
H   26.112919   72.115936   15.622418
H   56.182381   24.801186   85.904350
H   97.980141   30.058390   81.147598
H   17.137398   52.679932   79.167664
H   74.674767   79.996223   12.028441
H   78.257385   66.996651   96.757324
H   46.997032   34.621574   33.804905
H   79.126587   73.101669   29.629114
H   52.919846    1.424244    1.156818
H   78.188316   99.843506   62.768440
H   76.100365   32.005985   80.529160
H   81.521553   59.020027   36.929760
H   81.500366   21.737436   32.840870
H   42.998363   96.209541   44.940357
H   74.826065   46.577854   44.042976
H   83.639320   80.260666   17.346504
H   57.124226   53.727978   21.219654
H   18.621513   59.659744   89.184547
H   67.309677   46.698517   54.963932
H   12.722667   14.366549   47.595886
H   37.271500    1.076239   18.685959
H   96.904175   95.850883    5.877083
H   24.974157   31.543579   36.220352
H   93.994797   16.106827   71.172646
H    4.720816   62.604042    8.867458
H   57.418301   12.053947    8.690263
H   20.726349    1.027537   83.363968
H   53.128033   73.221977   78.547585
H   36.898121   98.437668    1.722990
H   75.621162   56.567249   86.143364
H   15.736023   38.066727   70.386070
H   89.095673    2.419615   45.397018
H   75.038620    3.288361    1.290998
H   15.541265   36.357208   18.226521
H   96.145744   47.036259   47.112488
H   85.991592   18.007622   70.095001
