200
TIME:    0.214, STEP:   214
H    8.672217   62.561283   14.894993
H   27.732546   32.498596   88.841682
H   18.682648   68.000137   44.067558
H   16.966084   76.669868   45.179588
H   15.486192   83.070282   54.032318
H   90.464417   53.520676   66.319084
H    2.982545   55.322578   49.148113
H    2.305981   87.763641   25.995220
H   86.372581   87.896011   48.353687
H   11.776455   75.263084   97.098000
H   11.287424   94.038765   92.140045
H   30.670288   41.328865   11.503417
H   10.536036   86.144997   62.357292
H    5.632648   53.097240   41.012936
H   20.877169   71.744438   43.042564
H   30.058239   27.037632   54.883881
H   82.984299    6.500805   16.694389
H   37.179588   81.917145   43.983250
H   64.160355   30.643204   42.101089
H   89.973534   80.061729   38.478611
H   57.773048   75.460358   27.031651
H   90.607857   47.820564   71.576630
H   95.783791   62.730499   49.760063
H    8.057561   87.822243   91.667587
H    2.116368   11.658266   46.338100
H   18.682615   61.182491    7.815268
H   98.392311   58.275059   48.036484
H   93.913605   69.056877    0.662859
H    9.973523   57.320015   38.490608
H   94.224335   20.067839   99.525284
H   13.395437   50.363010   16.163025
H   32.398853   62.896957   92.963005
H   27.751518    8.426077   72.861572
H   97.287056   63.549553   37.835846
H   49.236149   90.875351   34.416859
H   33.910553   50.514763   79.178337
H   85.518219   74.990173   85.759743
H   34.201000   44.082760   16.336452
H   54.032516   47.331638   43.853699
H   90.332092   39.795406   64.712006
H   80.496574    6.438350    0.661284
H   12.045183   43.652092   40.602081
H   77.169998   88.379204   49.362843
H   37.339188   61.971268   17.818453
H   27.888681   75.501892   43.425652
H   41.425674   14.515142   42.405109
H   79.484192   27.485977   95.608910
H   90.748802   65.551003   48.582352
H   86.074860   29.738827   61.147587
H   63.047825   17.684172    6.812418
H   78.826736   70.825203   28.899136
H   22.132021   35.250469   62.982552
H   51.475647   95.166298    7.588067
H   22.793552   81.635025   81.318138
H   78.299423   76.963165   91.614220
H    5.638956   72.990578   77.796844
H    5.504684   16.647072   49.933491
H   67.124619   57.974979    5.772708
H   28.729788   73.975204    6.497646
H   43.704632   96.135170   67.474869
H   50.503723   15.883673   42.996140
H   89.469543   16.363291   48.866924
H   70.731018   24.667860   85.762085
H   23.496082   65.115242    3.087003
H   70.930420   75.691467   16.866419
H   39.759590   15.551016   32.395950
H   87.146339   23.710415   85.297951
H   97.487022   91.390816   86.756798
H   15.597673    5.501895   62.308891
H   45.386631   41.176823   50.983982
H   58.476570   76.142441   72.585876
H   32.871166   24.505247   44.946827
H   76.668594   25.213604    0.366358
H    7.018323    9.536180   59.815769
H   78.828445    0.450701   68.835236
H   52.656578   19.994534   63.047371
H   95.537476   28.982279   72.513344
H   27.518250    5.496492   48.856606
H   11.332890   28.535028   35.514309
H   68.667862   90.811951   95.494659
H   42.264599   30.541475    1.519552
H   25.493237   69.057793   88.661003
H   11.101151   13.381103   91.040443
H   25.521925   61.009407   93.004120
H   39.834084   99.048920   58.519020
H   23.934704   86.684021   28.324059
H   34.689926    2.729931    1.711718
H   75.547707   19.512014   10.461526
H   64.892685   71.986000   77.071709
H   23.574356   84.881767   55.151546
H   42.332733   34.668346   80.870132
H   84.236534   88.307343   97.800522
H   46.024578   17.155331   96.470322
H   61.193752   95.367744   68.390755
H   24.466084   57.277901   66.856911
H   70.348793   27.127991   30.284151
H   78.952904   15.178457   97.209457
H    7.609449   28.034691   48.347401
H   37.607048   70.038483   52.789108
H   66.752357   97.504868   27.244059
H    8.706239   79.707520   67.715492
H   89.605476   76.263214   66.008018
H   22.640440   38.120117   30.139488
H   20.626554   67.891479   89.129883
H   25.373205   27.814415   24.244587
H   86.393791   28.045835   45.108032
H   64.426659   29.773943   56.380234
H   64.904335   33.276108   19.746965
H   72.135811   40.417847   97.875359
H    3.531524   28.422899    5.410014
H   46.852463   96.292717    0.777558
H   84.949966   62.691391   90.215004
H   57.545616   79.972946   94.500908
H   63.312248   19.957874   75.624451
H   64.717903   80.885895   27.684292
H   15.099568    6.557940   77.761459
H   33.643925    8.076604   83.876999
H   40.903027   25.716732   34.498222
H   17.874933   56.737461   84.824661
H   70.096489   46.155941   48.372856
H   40.283211   21.586658   88.371803
H   19.410946   28.095951   47.423370
H   31.609564   22.919125   23.257860
H    4.460378   68.254509   19.003765
H   77.694359    9.595838   93.673042
H   46.769802   61.640995   26.033396
H   96.032906   49.068527   72.058884
H   75.997383   87.366051   34.782986
H   92.147758   53.424809   85.482780
H   66.484985   24.272579   66.058662
H   47.559410   86.114044    2.417746
H   82.697975   85.793503    8.713841
H   92.522652   81.329765   97.181747
H    2.195495   12.336329   49.387032
H    3.141662    1.840234   57.611633
H   63.050568    1.660219   84.064644
H   68.849670   86.498268   54.044334
H   90.996574   65.032631   83.609184
H   45.633636   43.970032   71.556236
H   43.433861   10.336923   96.179932
H   49.330471   63.833260   14.070094
H   58.435226   40.220840   45.640789
H   55.841309   56.282436    0.261207
H   58.904457   27.468884   77.693581
H   39.079815   70.629364   48.218357
H   44.987488   61.527725   31.091400
H   44.116325   96.891655   47.468060
H   43.362389   74.386513   68.974144
H   64.490204   65.877731   98.202927
H    8.633144   88.390938   90.969933
H   77.136665   60.868389   51.540478
H   32.692894    7.829107   48.967110
H   74.967911   32.810772    4.377361
H    9.222584    0.545946   76.595024
H   12.581539   53.192402   60.282791
H   62.730263   43.464436   53.261055
H   59.039104   60.103916   80.447922
H   45.676414   37.077057    9.115005
H   13.571766    1.832299    3.569105
H   63.971172   58.004669   77.243301
H   53.700554   85.465675   84.107185
H   44.824841   23.191040   35.769218
H   64.100182   35.703499   37.242863
H   10.320324   19.415859   72.311218
H   59.203133   21.206137    9.569077
H   11.465739   65.266426   62.443951
H   75.347542   97.987495   51.946072
H   23.609501   29.749619   46.937580
H   93.719673   28.254763   36.918327
H   25.286438   10.655921   90.696136
H   79.861694    5.324619   35.978256
H   47.061134   66.412750   57.378273
H   37.170586   78.571426   91.155594
H   71.544090   75.167542   73.641739
H   72.646301   95.232132    0.453906
H    0.104640   47.520409   23.261801
H   35.684841   52.108948   85.820335
H    1.499571    9.176064   64.547745
H   76.266487   21.983980   69.438934
H   87.537331   54.176201   86.018227
H   81.892502   84.257698   42.323814
H   18.703241   30.074306   68.666992
H   66.832077   90.192734    5.555436
H   50.914787   25.172186   76.233772
H   85.186737   89.462082   78.503952
H   98.716118   36.004379   83.824074
H   30.446741    4.969932   98.689102
H   91.670151   66.123238   24.616798
H    7.371319   61.057461   66.246262
H   49.140770   58.414745   65.374527
H   46.578213   31.884552   79.487129
H   47.866058   84.222626   24.955557
H    3.522951   16.905476   57.210625
H   35.557819   62.493340   32.789303
H   85.786850   55.416660   21.901333
H   75.264664   10.319647   29.922585
H    9.288455   84.850456    2.589206
H   29.665110   97.922920   47.699966
H   12.260026   11.539145   79.179878
H    8.278925   35.873577   98.110016
