100
TIME:    8.249, STEP:  8249
H   59.475822   65.548515   91.593826
H   72.659348   51.866367   98.230484
H   21.563669   67.370056   26.509151
H   82.861176   92.790825   88.006905
H   21.280943   33.950977   42.040298
H    0.095869   92.271339   95.671913
H   20.640465   18.349375   35.535709
H   71.531158    2.245992   50.798622
H   50.851707   93.184860   80.842468
H   49.450447   34.828419   30.702305
H   32.953140   98.159210   45.163864
H   41.000648   37.170193    5.756618
H   17.738518   62.683884    5.344487
H   46.639748   79.650154   84.992561
H   80.798347   33.191483   54.205444
H   69.848740   90.241173   48.302032
H   60.771523   27.578182   24.327368
H   77.464600   93.442787   13.575649
H   73.744156   24.408588   97.952408
H   70.271561   30.637514   77.962898
H   74.769371   35.003452   33.352345
H   53.220005   55.034653   16.799698
H   75.606163   27.535734   96.335876
H   52.607414   35.510223   94.431122
H   34.551949   31.973389   97.460670
H    8.712688   82.922958   14.614401
H   50.758957   99.574722   63.644627
H   36.515144   41.475132   39.440613
H   90.537117   97.506119   67.237419
H   17.296635   86.676468   39.160034
H   40.705776   61.758545   56.744453
H   86.604271   24.601200   35.612801
H   51.406002   64.946251   40.932022
H   26.642246   17.750954   24.233629
H   75.660820   35.104942   26.927832
H   89.709442   31.526659   93.492714
H   70.984734    2.437980   58.454250
H   23.046398    7.989716    4.551260
H   96.877831    1.686999   44.922707
H   86.229706   39.939613   87.048889
H   71.490906   39.225006   36.687344
H    5.033084   73.951614    1.087300
H   82.278107   12.971117   97.307930
H   52.616589   51.103004   87.278717
H   41.116035    6.430866   62.000366
H   71.644463   20.250195   16.673761
H    6.183745   73.446663    4.647897
H   56.691097   80.332016   78.978935
H    6.158929   49.267296   15.417482
H   98.929932   56.288494    6.761838
H   42.935177   73.255699   40.384201
H    6.029712   98.292526   32.541565
H   79.978416   69.839233   23.783098
H   85.664154   72.617035   95.822708
H   83.996986   81.508072   70.507858
H    3.869879    3.856576   11.811371
H   19.203270   51.525108   40.536064
H   11.818479   97.870628    1.078732
H   40.855968   87.318001   78.210892
H   14.670653   61.834896   28.989403
H   80.053665   94.955322   71.238228
H    6.144814   51.161545   22.112957
H   34.084911   44.386383   67.811768
H    9.483418   86.698837    3.176799
H   59.741859    2.009578   63.762421
H   94.599953   32.191002   33.929615
H   25.736059   33.552097   65.323898
H   10.550974   89.306023   60.552505
H   68.032684   57.065804   42.870384
H   97.557640   62.968372   84.347610
H   60.088787   34.139137   63.200905
H   93.982559   77.700584   60.693325
H   69.140869   10.282957   50.247059
H   48.614109   27.340992   13.026213
H   59.833633   40.461422   26.746252
H   20.667482   36.256210   40.876198
H   15.967908   11.827988   37.038933
H   19.531271   11.341961   70.003906
H   57.081169   29.288807    9.715111
H   94.987114   59.657433   10.262465
H   72.303032   14.622048   73.014389
H   60.293602   97.966522   96.893089
H   39.642090   45.070591   15.535741
H   17.667801   18.043909    9.999130
H   50.672760   32.896152   48.104927
H   61.444080   12.052569   14.618966
H   18.086916    3.582714   16.887474
H   88.695641   44.981216   10.048698
H   26.875526   34.880592   60.724617
H   37.016315   69.891495   19.099379
H   61.605762   18.853855    7.665900
H   88.641365   15.883183   90.704384
H   14.230175   75.029625   56.912415
H   44.499481   13.630116   83.016212
H   13.970592   10.833862    5.640336
H   75.255157   69.988037   41.377464
H    7.835796   41.071785   62.781166
H   22.354837   94.620735   13.282042
H   15.749484   72.423378   54.097996
H   51.587429   66.948257    3.087178
