100
TIME:    6.241, STEP:  6241
H   95.269363   49.690636   93.432205
H   28.113430   43.055149   71.621559
H   87.041916   22.906265   50.084576
H   82.524139   75.520844   98.071655
H   39.270981   73.001099   96.486954
H   31.239140   94.446754   96.813164
H   25.879852   82.760002   78.507408
H   29.356003   28.527821   35.166065
H    0.212182   86.246613    7.237586
H    4.296003    5.995311   52.078129
H   19.732407   17.362463   38.584846
H   17.638504   36.519550   48.687569
H   45.815689   84.184517    4.884453
H   46.063530   85.839363   32.183048
H   56.409187   12.555939   50.772160
H   50.587112   65.868324   14.983342
H   22.243141   94.765068   41.531197
H   34.527935   91.152145   83.179726
H   42.471622   40.171600   92.162857
H   24.374283   73.276161   41.248894
H   93.926941   34.906216   87.851662
H   60.711090   52.369003   87.799500
H    2.416088   43.864571   53.788422
H   39.179058   11.488741   43.562687
H    6.370904   91.216888   82.631081
H   18.096323   42.160362    3.542140
H   23.910126   83.046524   23.797766
H    5.944800   47.748482   73.068802
H   46.875618   15.324492   62.156616
H   40.300175   36.375206   79.530380
H   61.680145   81.697853   15.610878
H   59.817783   80.078720   21.503395
H    9.964298   11.861273   60.035522
H   41.799370    1.772391    8.828341
H   25.635025   87.138802    4.757460
H   15.157225   74.250542   99.804482
H   78.391701   75.976196    0.231846
H    6.041670   44.741138   62.850246
H   81.638092   45.435112   39.512718
H   75.360428   27.921520   29.062960
H    8.723835   70.324974   89.380959
H   74.256454   66.077225   98.574425
H   64.997345    0.925704   52.267403
H   80.834412   17.397787   90.947838
H   15.295593   85.654007   90.169174
H   97.565605   81.954361    8.515955
H   90.492477   64.244827   85.372597
H   56.572720   59.650253   54.735630
H   47.459099   15.570747   95.517258
H   56.772404   25.723871   47.161545
H   43.073055   67.115219   19.216831
H    8.433758   84.621399   64.353340
H   38.329693   58.196167   40.401371
H   32.164536    5.372718    7.214987
H   43.877556    5.535882   53.432095
H    1.368917    5.968797   80.168427
H   91.904610    9.465243   49.558525
H   61.337799   87.501854   52.801987
H   82.491074    2.466313   32.360878
H   47.176476    7.491329   86.101707
H   53.387897   88.336441   27.798611
H   77.412636   69.851730   12.967521
H   97.761513   81.408241    5.506348
H   71.598923   75.760483   57.699322
H   80.039536   62.387005   76.766029
H   17.952129   32.014366   15.200442
H   86.841080   64.127197   68.377640
H   49.257256   74.466591   64.558487
H   67.954292    1.347878   68.809235
H   56.824440   62.047974   88.591370
H   23.852940   70.763397   87.283669
H   59.367207   44.398422   13.558211
H    0.065770    9.601967    1.726376
H   92.821785   54.425373   32.333855
H   63.072895   37.538715   74.508072
H   73.201042    7.561891   75.988617
H   33.599209   85.626244    1.426571
H   25.193859   42.636856   59.108292
H   60.789822   35.186939   87.312508
H   93.460953   69.042793   83.253502
H   32.999115   93.847672   52.998768
H    9.617149   84.944641   64.881371
H   12.631417   11.490052   24.304527
H   79.519936   46.215233   93.398582
H   48.444588   58.508232   42.757370
H    7.651744   38.296341   75.177139
H   83.976997   49.581245   21.138449
H   56.401451    5.662195   30.868340
H   85.201035   46.682991   77.147469
H   14.550164   52.505726   47.316933
H   79.430077   10.428310   65.260300
H   40.069698   64.862152   52.440094
H   85.513687   14.779561    1.630688
H   50.435375   91.807442   47.620010
H   48.689293   90.698502   59.497501
H    9.402648   49.280975   45.093262
H   67.221123   25.838072   78.263596
H   26.230753   95.263885   53.592056
H   11.406159   63.752796   22.287758
H   26.863848   18.481110   96.524666
