200
TIME:    0.362, STEP:   362
H   13.220012   62.070103   17.425701
H   29.051676   34.659225   94.849892
H   15.580609   74.478073   51.357353
H   21.954952   78.399727   41.309425
H   13.914838   86.821320   51.904434
H   85.649719   49.503723   61.938248
H    5.126784   55.217567   52.012768
H    5.622579   94.154633   20.741848
H   92.383049   85.677231   44.743229
H    6.566575   73.189964   91.260292
H   16.446077   97.200386   96.816986
H   31.282288   45.279198   18.555334
H   14.168513   91.056801   56.291496
H   98.637108   53.721661   48.144650
H   13.731668   72.883751   42.678413
H   25.744320   20.939655   51.691208
H   89.946640   13.432362    9.508759
H   33.665108   89.031921   41.348377
H   69.084579   25.285103   44.279785
H   90.444389   78.029259   32.741398
H   59.549202   82.848389   20.251102
H   87.312996   53.477608   65.873291
H   91.351875   61.654419   46.208885
H   11.192327   89.171471   91.203529
H    8.549214   17.610685   41.057064
H   18.560102   67.750519    2.927176
H    1.258255   61.244724   53.987106
H   97.310089   75.162193    1.052285
H   16.206997   52.821480   37.623985
H   87.536377   24.032568   94.405716
H   13.202211   56.546238   16.343971
H   29.707523   66.365707   96.606773
H   24.175499   11.610704   74.669342
H   92.388802   63.711021   40.422729
H   42.133793   84.759872   33.291096
H   29.076096   47.140297   80.875450
H   89.766083   71.795807   86.870827
H   26.880352   47.911144    9.682087
H   48.555008   42.031971   47.143478
H   88.912750   39.186794   58.930756
H   80.540611   99.524780    5.573724
H   19.411760   40.548622   36.213638
H   74.505203   84.979332   54.858418
H   37.009476   69.159279   23.111628
H   32.945351   80.017365   48.766533
H   39.342957   10.663469   44.014713
H   82.273193   20.235138   98.854088
H   87.145683   65.548744   43.261795
H   91.798523   24.122433   61.254292
H   57.751545   18.352064    0.550923
H   75.306046   68.951942   23.033764
H   16.474413   37.797832   66.164680
H   55.466629   90.930855    9.524293
H   20.590862   84.758255   83.509819
H   72.034897   73.671692   86.827751
H    3.741701   69.344551   82.643158
H    5.082312   17.207130   48.345905
H   68.741562   61.415501    3.101491
H   25.606840   76.834213   10.077193
H   40.281612   95.304115   64.738937
H   50.024399   12.996153   38.672058
H   92.128693   16.713892   50.001156
H   74.808380   27.733786   80.768982
H   27.081982   65.326393    6.391392
H   73.309540   77.897827   22.918383
H   33.954063   21.300920   35.056229
H   81.618019   20.588596   88.355690
H   96.658226   91.727303   89.686943
H   20.862043    7.501903   60.435631
H   44.534687   43.756367   50.976078
H   58.411644   78.702225   76.544678
H   28.711716   20.615042   43.910831
H   81.365860   27.772259   95.410538
H   11.839936    6.283060   64.124062
H   80.630569    2.846476   61.876282
H   56.397453   14.769423   62.080254
H   94.911926   34.491966   70.419899
H   22.036507    8.191492   43.795753
H   12.458088   35.128849   32.236385
H   66.437790   89.986542   88.475861
H   48.546062   28.040125   99.322571
H   32.000813   66.396385   84.085686
H   10.523732   15.004539   86.710152
H   20.695654   65.848946   97.827850
H   34.563774    0.613939   54.324791
H   28.104374   81.505737   25.243172
H   41.323120    3.038330    2.051013
H   74.316933   14.003685   16.043762
H   69.419693   72.354004   77.610146
H   22.833069   91.515526   53.523312
H   36.128616   35.945980   80.211838
H   83.205620   89.605865    1.029875
H   53.055233   15.486164   92.255203
H   54.557171   90.050575   72.454567
H   28.216274   55.275917   73.020943
H   64.219765   30.436966   23.325480
H   80.960533   10.059454    3.583457
H    3.540838   30.334488   49.748676
H   34.253471   68.555908   53.313599
H   69.325691   99.909958   27.280191
H   15.309369   83.799561   74.684608
H   95.108955   78.502319   65.191643
H   25.708342   32.711487   32.207783
H   27.738226   68.164734   95.007111
H   25.177015   25.869453   29.042912
H   92.252953   20.799795   38.179001
H   71.437553   31.611635   55.691452
H   64.032631   38.958557   14.024099
H   75.897011   38.549667    5.031910
H    8.285808   26.359377    6.134364
H   48.799683   95.006615    0.881687
H   90.892685   66.413269   91.900826
H   54.975105   81.690384   91.281700
H   62.810905   16.767178   71.807922
H   59.778999   87.048798   22.494999
H    9.059602    2.228227   84.438126
H   27.558933   10.160592   85.602341
H   40.152142   33.001446   31.539848
H   23.495562   62.294010   77.510025
H   74.002220   49.109798   53.893837
H   41.827888   22.570148   83.522102
H   13.025036   24.589939   51.776810
H   35.177681   16.677181   27.648279
H    2.279819   62.928421   12.522648
H   73.265831    5.931422   88.778175
H   52.191982   65.690460   23.175798
H   92.354134   49.759567   66.343124
H   72.760109   88.526817   36.032955
H   93.969078   48.067554   82.110008
H   73.658478   23.571095   68.580055
H   53.533745   80.829620    8.073650
H   77.017220   87.261398   12.204045
H   92.039375   88.530357   98.282669
H   94.938400   16.130985   51.208916
H   10.453006   99.164185   50.810760
H   59.108704    1.470275   81.884254
H   69.094696   86.875404   61.412041
H   92.258965   60.411709   81.270714
H   49.502106   46.039764   71.521233
H   43.514030    3.238660   92.067566
H   56.657528   59.480949   18.850861
H   51.621933   44.717682   49.090908
H   51.083633   59.006512   95.269241
H   52.122780   22.111433   80.146095
H   46.036510   65.720947   53.057896
H   50.410233   64.077896   24.003159
H   47.616692   96.243523   46.408352
H   39.321159   68.877388   68.125023
H   68.446747   59.698624   96.731644
H   13.350922   90.006752   85.431427
H   71.919991   63.381878   50.423183
H   38.922981    3.734029   44.329124
H   81.843307   27.276806   99.181702
H   13.134949    3.943074   72.937706
H   18.450298   57.100956   62.960571
H   67.123787   43.831409   57.814354
H   60.588299   64.542114   82.200363
H   47.780586   34.702454   12.582344
H    6.798121    1.274640   98.080559
H   62.311886   51.965973   82.922928
H   55.154335   79.452950   80.172096
H   37.876049   22.424065   34.487068
H   70.470848   29.250847   37.181324
H   15.752808   23.763653   65.978943
H   57.786049   26.228033   11.023281
H   14.015643   60.557453   61.634914
H   72.799049   95.593697   53.515026
H   23.738789   36.483307   53.057575
H   95.730690   27.773462   36.568855
H   32.040451    9.539050   89.029510
H   77.034302    7.084682   35.965836
H   41.948341   60.915726   57.832756
H   40.030159   72.212051   86.991287
H   69.723778   71.619850   77.069931
H   65.767517   94.118790   93.494987
H    4.674058   48.319847   23.403791
H   34.164440   56.732254   92.011467
H    2.811255    9.317207   66.440201
H   72.481575   18.543459   67.707947
H   80.497078   55.763786   88.106026
H   79.190445   89.561317   38.882729
H   21.688433   30.254971   74.069977
H   60.018452   90.039169    8.484652
H   54.137566   25.446201   81.678535
H   87.100647   83.042862   77.894211
H    1.814463   37.253220   84.564796
H   35.600098    2.434800    1.968341
H   84.559891   72.392281   29.795364
H    3.085346   61.717449   67.937729
H   51.832100   57.609661   67.244400
H   53.648388   26.987991   78.430244
H   46.652786   88.244659   23.070440
H    6.810397   20.426449   60.600899
H   32.972065   68.400070   35.771954
H   80.707932   48.806049   21.417210
H   75.625992   10.682810   27.894913
H   10.272227   88.886040    7.584577
H   25.363894   94.981483   43.526062
H   10.286412   11.953260   72.560799
H    6.735293   30.859520   96.053833
