100
TIME:    1.445, STEP:  1445
H   19.602911   89.507523   97.823074
H   61.074944   83.091103   69.150414
H    4.592998   77.863335    6.373067
H   81.719147   73.115868   60.959408
H   82.228317   88.580650   26.524361
H    5.608942   99.642616   21.848639
H   77.237144   58.912167    3.453687
H    6.312149   13.613369   75.519417
H   18.107140   47.362579    9.128917
H   35.350945   37.131416   64.277031
H   65.844650   24.384983    0.560139
H    0.686729   96.121269   90.072746
H   51.345161   74.282814   81.507439
H   83.533882    0.622107   67.206276
H   98.076164   40.952900   81.313065
H   43.424393   85.346062   13.093314
H    7.891616   77.557144    4.919612
H   32.023338   24.430496   49.450974
H   67.767097   38.973473   39.490200
H   53.585793   75.127060   14.714914
H   78.528290   12.362587   18.024868
H    0.903756   46.007172   96.215431
H   66.451195   82.870125   91.006287
H   84.785347   54.012241   99.755203
H   77.902702   71.572365   47.223763
H   40.033276   84.552216   53.732193
H   37.474716   82.410782   28.640684
H   10.617279   23.887417   14.536029
H   42.591156   80.193817   88.866936
H   56.400814   55.076248   98.262413
H   72.943947   51.625137   95.067719
H   56.995335   12.590051   65.493187
H   72.142410   62.759132   27.973967
H   39.156410   41.297035   10.876017
H   44.854088   49.689278   12.719658
H   98.191467   97.995621   15.672111
H   18.393654   51.617531   22.325506
H    4.267929   32.506535   24.411350
H   85.758743   49.661507    3.629889
H   27.090918   76.907616   51.724346
H   36.491203    5.764706   76.388107
H    1.752818   76.711052   70.688660
H   23.687468   72.165176    5.847705
H   87.086662   36.988312   22.018801
H   31.312820   74.877182   79.762527
H   59.445011   90.477943   89.038826
H   51.337940    3.689266   39.970650
H   56.316586   10.261030   57.986340
H    7.270932   12.774971   86.832596
H   56.196064   52.743221   82.599449
H   43.434376   30.138483   68.652710
H   75.357399   29.653505   79.200699
H   38.854362   30.387329   18.945873
H   43.228794   83.629539   95.581192
H   25.723320   85.181519   12.667965
H   95.374252   11.013321   43.435593
H   87.858597   47.852226   93.418877
H   18.459694   40.425545   76.335403
H    4.241828   99.822647    0.549487
H   63.662136   38.855732   22.510338
H   50.852642   11.373544    1.732982
H   47.625275   14.495190   29.972916
H   72.247192    8.614895   34.425636
H   42.265038   49.654930   87.908348
H   89.676582   45.434650   30.130896
H   12.576561   70.437843   31.625029
H   71.633438   98.321228   36.827648
H   80.549660    0.177546   35.281956
H   28.920677   45.957840   69.605751
H   59.656967   20.822008   98.690369
H   76.146782   97.082512   44.816929
H   54.819530    3.568338   62.419014
H   12.774845   46.829777   24.696484
H   98.387230   57.938309   17.327950
H   31.841526   30.699762   10.938496
H   59.822483    0.183016   98.700066
H   98.151237    1.303753   16.602701
H   99.869049   56.236755   94.241211
H   30.815393   49.269382   33.801338
H   28.660110   30.255823   96.433235
H   39.159519   44.230846   66.352882
H   49.743366   53.664505   65.947464
H    9.227485   31.374380   67.528992
H   49.573788   35.812115   31.445198
H   81.969650   58.499832    7.675907
H   18.033237   62.134281   42.128532
H   63.663002   98.289642   92.446182
H   79.216812   89.604538   80.722466
H   85.669868   13.717155   16.377354
H   38.580994   49.825356   75.871758
H   83.157875   51.456608   63.977489
H   85.202324    4.184190   61.053314
H   77.998177   70.926804   30.704512
H   86.892433    0.882028   24.247982
H   31.610100   20.295013   49.290672
H   13.272705   38.668999   92.812637
H   47.904831   50.605984   54.085922
H   12.170693   28.540985   32.916740
H   39.875450   43.079121   24.010395
H   28.980789   41.587284   58.511787
