100
TIME:    5.822, STEP:  5822
H   23.604151   88.115166   93.815811
H   39.685005   20.348875   45.201618
H   79.836517   92.762421   55.004322
H   82.453812   92.783112   21.038857
H   43.023926   39.416397    7.847475
H   37.738064   94.900688   55.319118
H   47.838543   54.467983   45.741062
H   62.288574   92.279282   73.637749
H   10.512062   26.531937   33.612457
H   15.741846   99.978661   35.672581
H   58.706772    0.503571   78.944572
H   33.631676   15.517143   78.512932
H   72.553024    9.522301   46.518486
H   66.810219   87.130836    0.295821
H   51.315529   49.982803   70.915497
H   67.433807    2.515529   49.764374
H   55.936531   67.049538    3.387975
H   25.567541   11.539879   97.705605
H   35.947124   22.592859   70.086334
H   35.661888   82.175819   12.721399
H   18.790977   76.619202   99.225578
H   20.541153   51.812775   23.481171
H    8.010798   47.272270   65.776108
H   78.110710    6.476290   74.681625
H   21.356026   24.445915   79.536659
H   20.006361   54.547638   42.942780
H   60.042252    0.462294   15.483156
H   41.298237   28.190971   59.219521
H   37.764977   77.309479   81.963470
H   24.234253   46.745354   46.220596
H   45.188286   44.125340   48.760826
H   33.361759   91.657227   60.292351
H   80.451408   42.516731   22.288694
H   24.095242   40.171104   26.479010
H   36.052963   18.821035   79.247009
H   78.734253   41.433052    1.122087
H   38.204636   91.320435   67.216164
H   23.359196   52.410061   33.283817
H   99.322327   54.564934   80.117409
H   14.826464   67.148003   96.097008
H   37.358719   55.947937   79.509499
H    9.567584   64.434113   77.181999
H   61.389133   98.412750   22.003563
H    7.590159   10.365011   49.979813
H   51.639797    2.187090   54.314800
H    2.973423   73.962570    6.813704
H   87.219040   41.458633   81.351128
H   56.550343   55.334686   28.810263
H   35.212479   50.271103   12.231402
H   47.982677   19.345915   76.465256
H   43.101826    7.566710   14.800351
H   88.071266   23.501019   91.857887
H   29.637821   55.766663   64.737877
H   41.866570   12.209695   88.725792
H   77.238487   68.818039   49.867756
H    0.847039    6.409544   94.432175
H   65.339897   21.555656    9.708134
H   92.537750   27.071829   63.594101
H   49.444832   84.762566   64.526237
H   74.826126   75.286942   98.019066
H   26.957142    7.822659   60.465855
H   92.283760   73.751724   31.927116
H   69.317131    9.999960   34.238434
H   42.826126   73.478027   69.075012
H   63.410103   95.850388   37.746906
H   43.691216   52.844170   90.425407
H   20.458649   49.642849   48.148819
H   78.200325   50.504002   44.527866
H   47.070751   31.454536   95.086243
H   48.337158   40.972023   89.473663
H   37.158653   99.271713   92.308907
H   93.916885   58.304138   82.881790
H   27.386417   30.326279   12.470497
H    2.046844   80.944176   57.229881
H   42.872845   36.940929   42.745499
H   63.297386   80.708916    4.183331
H   95.554558   21.933455   94.013069
H    5.508479   70.035210   35.967262
H   40.698460   36.417675   82.638908
H   14.008772   91.867348   19.350536
H   24.799540   89.512924   27.955950
H   78.168747   82.227325   99.930229
H   86.129234    4.483449   84.401474
H   50.693420   10.360023   31.667286
H   68.846031   84.715584   83.374847
H   17.296223   22.905098   46.080627
H   55.992943   80.045952    1.158859
H   49.662773   39.191296   35.212677
H   76.505966   70.012627   80.574348
H   51.596188   69.744553   32.340317
H   62.282890   87.802795   56.411785
H    9.067942   33.348923   44.457893
H   58.654877    2.206905   69.228775
H    9.941820   66.387154   19.367434
H   55.933052   28.230282   49.868992
H   74.794907   65.827179   66.735031
H    0.479746    1.793498    2.360524
H   27.039522   74.529984   62.002617
H   31.366272   61.946651   57.384506
H    0.838939   29.233265   36.889072
