100
TIME:    4.803, STEP:  4803
H   92.515541   81.561806   94.748734
H   67.828163   65.132980   80.950745
H   62.313873   19.450935   66.967125
H   82.282776   34.767570   76.895027
H   52.151016   57.739136   35.474701
H   53.543324   96.004646   54.403950
H    1.245875   85.659149   66.053864
H   42.379967    4.123182   67.199303
H   35.561028   24.504639   97.754555
H   43.586342   85.347328   95.768646
H   53.491669   59.501652   77.099731
H   72.525063   64.440224   51.046013
H   37.577682   71.143242   47.771729
H   17.265030   90.271675   22.750269
H   38.923210   41.003815   19.896008
H    8.405308   91.641006   34.350525
H   37.878517   99.652832   10.624388
H    3.776936   61.118534   33.028759
H   20.076748   79.845535   16.403543
H   63.113129    3.818914   43.343178
H   79.259895   78.063812   26.882931
H   22.848633   50.460037   10.258423
H   21.617058   55.559731   94.929932
H   72.790741   94.286072   50.361023
H   57.801056    5.256859   72.011086
H   24.651537   84.667923   38.765835
H   47.911179   42.822422   95.264992
H   27.278927   80.627518   25.533251
H   15.608035   84.857903   30.131081
H   85.162018   71.965355   65.213295
H    5.082479   52.749279   29.380867
H   69.021584   19.811287   54.626274
H    8.673653   17.071985   30.489126
H   81.039413   33.556366   69.408485
H   61.381805   95.849991   17.197990
H   90.154510   61.620274    4.327040
H   40.469185   28.640259   86.923019
H   65.473137   71.057793   61.374607
H   42.337116   76.768486   78.866043
H   10.804880   62.543434   15.923994
H    7.001077   20.986670   55.502300
H   99.954185   27.418627   28.448801
H   52.611889   92.302109   48.399117
H   72.654999   93.261078   50.347633
H   40.030987   42.388916   67.116234
H   16.122425   54.526691    2.672564
H   79.258102   86.040916   71.570992
H   56.495922   44.839310   65.760353
H    5.428848   34.665089   52.881783
H   26.610981    3.836081   47.735397
H   43.178181    5.944550    4.058138
H   38.548637   18.056501   58.755157
H    8.500045   49.858154   23.917849
H   65.462212   28.838593   43.758934
H   58.373077   79.513680   41.199352
H   99.575851    7.481433   29.121353
H    0.742184   50.958260   12.792805
H   68.414200   23.303671   89.840317
H   69.078163   41.708023   42.754318
H   42.069874   96.961838   27.001839
H   62.677643   55.208988   39.915878
H   28.447153   83.236435   78.034439
H    0.135525   79.534836    4.114342
H   72.853859   67.927139   96.736160
H   22.961012   77.237000   42.851841
H    6.289944    3.501724   30.174170
H    2.214385   14.415401   98.950302
H   48.589760   92.225418   95.813774
H   96.281967    4.673370   58.998138
H   27.695440   89.719238   91.619385
H   69.515511   68.603836    4.531385
H   77.937347   92.122574    8.274528
H   93.826309   80.729988   38.600098
H   24.475895   45.436550   17.775524
H   93.743660   35.487125   65.498016
H   39.204666   15.399557   72.747635
H    3.035806   10.253838   75.992119
H   57.633999   36.663914   79.691978
H   91.834831   39.410801   71.272804
H   63.976990   47.372555    7.138515
H    4.859256   78.970901   67.052971
H    1.699407   75.594803   85.153343
H   21.674746   87.442444   87.357193
H   80.588150   23.162249   24.737335
H   18.462896   48.455185   82.155479
H   40.751446   85.476982   75.318054
H   87.936226   54.135696   52.569138
H   33.266388   20.754740   45.794159
H   55.359726   26.748537   88.908455
H   41.689007   11.666031   95.913834
H   20.581261   32.780338   34.892376
H   33.672260   56.710663   25.045332
H   93.335228   71.634789   90.427902
H   11.455466    4.569633   50.659550
H   73.549736   19.505814   26.453560
H   90.629669    6.066838   19.367989
H   81.362968   43.314877   60.964050
H   24.495665   57.132355   79.176964
H   79.909332   57.554142   42.735832
H   37.543484   55.378826   35.052029
