100
TIME:    5.589, STEP:  5589
H   39.360756    9.482224   94.029129
H   46.120094    7.722520   30.509441
H   75.829697   75.999191   57.740124
H   82.414703    2.382626   33.810501
H   45.110886   20.740419   14.164795
H   41.352024   95.153114   32.243458
H   60.049213   38.734013   27.520159
H   80.601913   72.120743   95.029976
H   16.239647   48.933868   48.279839
H   22.107531   96.633125   26.548742
H   80.379868   91.128265    1.389107
H   42.525253    3.838434   95.098396
H   87.421280   23.612835   69.670586
H   78.347160   87.849007   82.565529
H   48.481956   70.795517   82.114685
H   76.802017   22.894791   69.105194
H   74.672951   51.638744   82.177063
H   20.584791   22.876835    5.782621
H   32.318943   12.817569   57.810787
H   41.938766   87.124794   96.857765
H   32.617531   99.813965    5.549656
H   98.203217   51.503464   43.323288
H   11.122128   49.167244   72.442291
H   99.758919    3.688936   91.985260
H   29.688755   42.924576   77.815895
H   21.068506   61.436028   64.852371
H   80.133591   10.148119   10.859936
H   60.957256   17.315315   51.516968
H   32.698677   56.169682   92.977783
H   15.300644   52.512047   27.697701
H   36.017395   23.232258   67.195045
H   18.649937   98.095871   81.862343
H   64.040154   59.564384    1.298212
H   14.249812   61.524223   36.294685
H   41.844543   36.434647   65.057816
H   58.479725   23.183277    1.854867
H   15.857171   99.853149   48.856609
H   32.988720   56.674641   16.842342
H    9.157662   59.641899    2.697016
H   36.772236   88.959755   77.765892
H   53.282898   47.953850   74.020119
H   29.312897   62.696846   65.370735
H   59.382168   97.015518    5.173919
H   22.467548    6.454096   27.199053
H   71.850578   11.379735   34.376690
H    5.980132   69.518448    5.867106
H   85.398727   28.787327   79.114845
H   56.537899   52.934860   14.393531
H   28.402306   69.567993   21.526020
H   43.095921   15.799505   92.762741
H   43.118214   30.061964   12.344085
H   76.747643   45.122211    7.153531
H   24.804394   54.415649   78.269341
H   47.261734   16.011642   78.443871
H   95.790031   48.398602   47.885677
H    0.556810    6.654637    2.364059
H   50.569252   28.278725   87.547783
H    9.887343   49.075768   69.595444
H   31.069273   74.917946   82.412941
H   90.202789   57.378246    4.646126
H   12.258764   18.657982   78.633080
H    0.553329   75.920456   42.470352
H   53.498432   25.899973   50.215942
H   26.825794   72.208786   75.399887
H   54.160995   14.459606   16.048269
H   58.004845   64.427330   76.648628
H   39.152954   41.588322   36.899857
H   94.295158   37.178745   33.389118
H   35.457371   48.196434    9.699426
H   43.617500   29.252193   89.964294
H   44.557228   15.125204   95.103371
H   13.128870   66.036911   65.823471
H   42.578476   41.850777   18.445175
H    7.175404   95.691551   71.074211
H   31.639853   36.608509   25.082432
H   57.788452   65.776665   19.861025
H   74.400536   42.128880   89.892479
H   94.561707   85.269661   23.098864
H   29.525936   37.102070   80.039986
H   25.433891    4.559606   39.423828
H   20.239870   87.102432   14.030675
H   60.680573   80.716324   19.420980
H   71.392525    0.587165   62.212719
H   34.664360   90.421677   52.947521
H   80.190987   99.288750    5.961555
H   22.659389   14.346606   29.900467
H   40.431404   96.986946   90.048538
H   45.915489   57.837055   37.628502
H   71.670761   82.985909   82.479988
H   72.196655   79.329636   24.011179
H   52.747581   75.220596   51.491253
H   91.828300   15.825677   40.019104
H   43.719070   95.216652   51.210529
H   87.423073   52.251293    3.656861
H   59.961205   49.101658   44.514713
H   55.550079   75.028290   78.769714
H   18.973886   88.422081   15.760886
H   27.380079   63.824677   66.595879
H   42.465912   60.942280   76.900139
H   86.365402   35.211910   59.335445
