200
TIME:    0.568, STEP:   568
H   19.549940   61.386433   20.948174
H   30.887762   37.666588    3.212777
H   11.263076   83.494659   61.503960
H   28.898918   80.807503   35.922577
H   11.727683   92.042358   48.942650
H   78.948181   43.912560   55.841011
H    8.111358   55.071404   56.000057
H   10.238923    3.049951   13.429791
H    0.748927   82.588928   39.717861
H   99.315018   70.304405   83.134834
H   23.626184    1.600939    3.326775
H   32.134125   50.777634   28.370714
H   19.224529   97.893501   47.848564
H   88.900703   54.590786   58.071224
H    3.785996   74.469551   42.171555
H   19.739811   12.451931   47.247353
H   99.637466   23.080360   99.507118
H   28.773590   98.934921   37.680920
H   75.938568   17.827206   47.312294
H   91.099770   75.200279   24.755817
H   62.021416   93.131729   10.813421
H   82.726906   61.351601   57.934860
H   85.183128   60.156631   41.266029
H   15.555634   91.049599   90.557579
H   17.503098   25.895666   33.706432
H   18.389578   76.892838   96.123482
H    5.247637   65.378181   62.269730
H    2.037807   83.660133    1.594334
H   24.883320   46.560005   36.417740
H   78.227463   29.551043   87.279831
H   12.933262   65.152626   16.595829
H   25.961483   71.193832    1.678587
H   19.198067   16.043360   77.185562
H   85.570961   63.935768   44.023392
H   32.248081   76.247787   31.724085
H   22.347054   42.443405   83.237648
H   95.678650   67.349594   88.417336
H   16.690918   53.239841    0.419911
H   40.930908   34.655407   51.722496
H   86.937180   38.339672   50.883881
H   80.601906   89.901535   12.411372
H   29.665239   36.228928   30.105278
H   70.796097   80.247078   62.507664
H   36.550552   79.164436   30.479155
H   39.984009   86.302414   56.200462
H   36.444038    5.302357   46.255108
H   86.155182   10.142639    3.370504
H   82.130531   65.545601   35.856155
H   99.765244   16.305019   61.402813
H   50.379696   19.281698   91.836060
H   70.405624   66.344566   14.869828
H    8.599819   41.343487   70.593605
H   61.022842   85.040001   12.216070
H   17.524956   89.105453   86.560402
H   63.315353   69.090317   80.165504
H    1.100927   64.269676   89.388702
H    4.494414   17.986671   46.136158
H   70.992172   66.204330   99.383354
H   21.260035   80.813644   15.059537
H   35.517139   94.147377   60.930817
H   49.357231    8.977037   32.653404
H   95.831291   17.201891   51.580482
H   80.483627   32.001221   73.819122
H   32.073174   65.620293   10.990807
H   76.621017   80.968842   31.342062
H   25.873098   29.304182   38.759048
H   73.923195   16.243362   92.611732
H   95.504631   92.195656   93.765388
H   28.189493   10.285697   57.828255
H   43.348873   47.346813   50.965076
H   58.321274   82.265167   82.054901
H   22.922131   15.200326   42.468838
H   87.903946   31.333630   88.512543
H   18.551176    1.755024   70.121498
H   83.138931    6.181136   52.190170
H   61.604347    7.496778   60.734131
H   94.041229   42.160858   67.506050
H   14.406555   11.942640   36.751595
H   14.024242   44.306530   27.673870
H   63.333599   88.837662   78.706451
H   57.289181   24.558516   96.264130
H   41.059048   62.691715   77.717339
H    9.720027   17.264185   80.682854
H   13.978006   72.585060    4.541785
H   27.228073    2.792305   48.486877
H   33.907974   74.298126   20.954910
H   50.555809    3.467588    2.523295
H   72.603828    6.336561   23.813633
H   75.725174   72.855576   78.352051
H   21.801277    0.749045   51.256985
H   27.493362   37.724308   79.295563
H   81.770699   91.413269    5.524716
H   62.841145   13.162865   86.388214
H   45.319767   82.649651   78.110954
H   33.436028   52.489372   81.600609
H   55.688820   35.042702   13.639806
H   83.754936    2.934292   12.455301
H   97.877922   33.535370   51.699100
H   29.585655   66.492325   54.043633
H   72.907494    3.257096   27.330484
H   24.500395   89.495239   84.384865
H    2.768997   81.618912   64.055336
H   29.978529   25.182901   35.086269
H   37.636681   68.545074    3.187742
H   24.903940   23.162277   35.721661
H    0.408294   10.714090   28.534395
H   81.195961   34.169506   54.732742
H   62.818546   46.867912    6.058385
H   81.132195   35.949364   14.993061
H   14.903262   23.487177    7.142581
H   51.510002   93.216499    1.026623
H   99.164307   71.593445   94.247307
H   51.397232   84.080872   86.800911
H   62.113091   12.326073   66.495728
H   52.904579   95.626892   15.272044
H    0.652641   96.202217   93.731323
H   19.089283   13.061278   88.003830
H   39.106991   43.140980   27.422112
H   31.318869   70.028122   67.328842
H   79.438576   53.221249   61.578445
H   43.977913   23.939060   76.771843
H    4.136582   19.709949   57.836327
H   40.144112    7.988890   33.759380
H   99.244781   55.515709    3.501592
H   67.101799    0.830940   81.965050
H   59.739071   71.326416   19.198332
H   87.233681   50.721420   58.387405
H   68.254173   90.142479   37.772778
H   96.504158   40.610836   77.415474
H   83.643204   22.594704   72.089561
H   61.849373   73.474274   15.946072
H   69.110222   89.304550   17.062031
H   91.366707   98.552803   99.815033
H   84.837372   21.412594   53.744122
H   20.629581   95.439362   41.344681
H   53.622055    1.205893   78.849388
H   69.435745   87.400337   71.667091
H   94.016075   53.979710   78.015816
H   54.886597   48.920609   71.472511
H   43.625618   93.359032   86.343597
H   66.856003   53.423004   25.505249
H   42.138565   50.976799   53.893101
H   44.461464   62.798130   88.320953
H   42.683418   14.654678   83.559731
H   55.719479   58.888962   59.794010
H   57.958107   67.626694   14.137093
H   52.488823   95.341393   44.933353
H   33.696205   61.209282   66.943138
H   73.953827   51.097740   94.683777
H   19.917610   92.255791   77.722458
H   64.658943   66.880386   48.868031
H   47.594589   98.033928   37.873550
H   91.413116   19.574123   91.950516
H   18.580444    8.671511   67.847115
H   26.618977   62.541241   66.687187
H   73.239098   44.342197   64.152069
H   62.744610   70.720291   84.639572
H   50.709366   31.397263   17.408504
H   97.369835    0.498447   90.440742
H   60.002338   43.560760   90.828354
H   57.177841   71.083885   74.694878
H   28.203928   21.356518   32.702454
H   79.338127   20.269230   37.095669
H   23.314428   29.815311   57.165710
H   55.813622   33.217972   13.047377
H   17.564835   54.002865   60.508823
H   69.251823   92.261787   55.698841
H   23.918743   45.855873   61.575947
H   98.529808   27.103544   36.082428
H   41.441307    7.984487   86.709747
H   73.098877    9.534499   35.948547
H   34.831886   53.264122   58.465347
H   44.010376   63.360432   81.195023
H   67.186996   66.692497   81.849197
H   56.192993   92.569138   83.808876
H   11.034154   49.432579   23.601427
H   32.048206   63.167397    0.628798
H    4.636996    9.513664   69.074295
H   67.213387   13.754533   65.298599
H   70.697807   57.973534   91.012016
H   75.429474   96.943382   34.093109
H   25.843496   30.506435   81.590347
H   50.533123   89.822113   12.564957
H   58.623856   25.827328   89.257057
H   89.764603   74.108002   77.045517
H    6.126987   38.991470   85.595802
H   42.773132   98.906258    6.532843
H   74.663177   81.118111   37.003639
H   97.119545   62.636082   70.292068
H   55.578140   56.489071   69.847061
H   63.489307   20.172508   76.959175
H   44.964043   93.842896   20.446562
H   11.386100   25.327263   65.320015
H   29.373262   76.621399   39.923481
H   73.638626   39.604794   20.743362
H   76.128922   11.188293   25.072613
H   11.641532   94.503136   14.537580
H   19.377066   90.887321   37.716438
H    7.539355   12.529665   63.347755
H    4.586742   23.880192   93.191849
