100
TIME:    6.749, STEP:  6749
H   60.914871    3.105318   92.967117
H   14.085217   70.583549    3.650857
H   95.777817   59.453941   44.119823
H   82.609406   54.591888   70.228394
H   34.720871   13.719450   82.712601
H   23.359776   93.896400   47.122585
H   99.255890   17.061817   18.233744
H   89.428200   72.475494   88.522911
H   87.724571   37.404633   75.262138
H   90.420296   13.290276   71.968391
H   72.479492   37.803074   89.651649
H   98.248596   61.983112   12.528030
H   13.399063   53.464130   54.406914
H   20.910881   84.273567   70.842796
H   62.579353   67.178886   26.343418
H   30.161827   21.436928   72.814941
H   81.392616   28.364841   87.776436
H   45.391613   66.432724   65.568398
H   50.381992   61.484253   18.926037
H   10.689072   62.486668   75.835930
H   63.781494   84.333038   74.061806
H    9.413544   53.043381   44.538574
H   95.633324   39.733040   39.254425
H   91.978462   17.565889    5.833543
H   88.201851   50.931267   86.382790
H   15.780573   27.141899   55.770714
H   80.105522   61.931152   33.878544
H   63.079689   71.460213   89.858475
H   57.921455   61.414013   38.142578
H   59.779606   23.802330   19.914635
H   81.671623   27.251781   75.419609
H   91.893341   66.040817   74.475334
H   45.747906   74.693520    5.800175
H   63.263176   55.217117   87.427200
H   12.992155   48.676033   35.666122
H   59.316601   14.039229   98.207680
H   27.116253   57.372681   40.260044
H   85.043755   35.443256   98.700645
H   60.196850   34.366020   90.284363
H   27.513409   80.364822   69.032761
H   74.005402   87.758018    1.349129
H   31.445114   68.069351   24.508873
H   69.369171    3.973198   88.961601
H   48.396397   25.924398   40.617050
H   71.229195   65.608719   33.640812
H   91.007866   91.643692   10.579782
H   94.461227   91.871048   90.248268
H   56.599850   64.882492   86.167816
H   62.307030   73.497169   75.254929
H   67.435791   33.457531   11.641450
H   43.038174   18.071150   24.571156
H   33.127598   37.482529   31.006538
H   48.867809   61.141724   10.896807
H   20.401688   97.084503   29.630287
H    3.429098   50.055496   57.753536
H    2.001631    5.434430   62.874908
H   24.109522   94.806664   97.873405
H   23.511087   39.528038   39.717514
H   22.556595   23.933384   93.362938
H   13.655197   46.539326   71.652977
H   85.432457   64.709976   88.190964
H   59.382729   65.123337   89.982651
H   32.249691   46.743690   70.671265
H    6.480962   78.527756   43.905590
H    0.201119   21.812450   24.074202
H   86.745819    6.760448   45.237396
H   46.083878   81.692017   92.903275
H   14.166323    3.519284   88.843826
H   93.270576   64.846237   36.947422
H   67.115685   87.597099   87.521667
H    7.720693   36.199615   81.191017
H   17.481493   27.538986   50.752655
H   66.943756   84.473526   88.703430
H   81.636421   22.275585    2.151474
H   87.567375   38.263477   13.017906
H   85.208061   40.120472   41.807175
H   79.735931   41.657963   10.436056
H   49.060619    9.419271   87.161522
H   85.152168   33.694782   92.978828
H   68.547745   41.370064   39.488731
H   42.940369   99.103165   83.361252
H   47.735977   88.239044   22.383446
H   44.765114   19.985144   72.684601
H   14.470483   89.685448   46.999737
H   23.709013   26.731102   93.512611
H   95.960312   56.957993   10.454316
H   17.905245   12.645427   45.361778
H   64.571495   65.013245   25.601219
H   95.743027   18.398829   72.992683
H   69.637253   31.603901   65.475052
H    0.219509   37.858391   75.988327
H   77.656555    3.069014   62.117798
H   18.077229   30.022816   40.915108
H   99.532082   22.626795   81.873734
H   39.906883   45.195801   71.171204
H   51.361328   29.220453   18.854553
H   26.898249   54.990921   49.048325
H   25.250193   20.400188   43.395004
H   87.206383   65.946022   79.737953
H   58.416187    5.445179   47.588367
