100
TIME:    7.809, STEP:  7809
H   89.231682    5.898672   91.996658
H   84.811447   28.022068   70.488785
H   14.000498   35.714172   31.673794
H   82.787323   10.919281   12.124277
H   25.223661   98.683128   53.970840
H    6.919700   92.748024   52.098000
H   43.700069   88.638474    1.127125
H    6.114296   64.178520   91.197060
H   61.667747   35.489960    8.537781
H   61.468269   28.510668   13.472843
H   73.880875   80.454742   87.547012
H   57.795387   15.115173   37.075432
H   45.795769   89.317627   49.069546
H   68.426247   81.006355   51.509251
H   75.454109   72.494461   75.365997
H   87.539780   28.725403   84.825470
H   96.153603   98.476395   84.272430
H   68.058472   14.852875   28.827744
H   66.889297    5.948858   74.769424
H   82.128250   39.980106   48.005623
H    0.879598   78.806946   45.292957
H   11.036775   54.450546   54.269791
H   81.480797   31.112547    8.924977
H   93.489090   30.246553   27.109222
H   50.289253   66.868439   94.211159
H   10.787273   95.894150   56.021500
H   88.700195   17.865526   54.913242
H   73.640343   20.937414   24.895838
H   80.969856   57.585468   88.036980
H    0.425634   97.566360    4.182076
H   23.388189   22.304092   91.555855
H   58.822292   36.756657   76.345833
H   20.412062   97.139244    1.293345
H    8.050229   58.074440   42.769913
H   86.611137   68.419151    0.156690
H   51.460545   97.062820   94.875771
H   28.784039   18.552919   23.783842
H   41.231735   16.042164   73.500053
H   15.450629   11.272726   87.562477
H   27.673264   81.131149   52.431068
H    1.562248   24.128874   26.321135
H   42.114021   72.226151   78.622795
H   78.491486   10.331728   65.524483
H   80.712280   43.716148   44.257793
H   79.282433   23.789715   24.347466
H   77.324394   11.859538   14.886194
H    2.744147   49.518440    0.422179
H   56.664242   75.800156   51.754208
H   93.296577   85.708809   32.969330
H   89.691650   49.591412   37.526993
H   42.965389   15.734953   35.744919
H   84.645691   39.121517   61.424622
H   70.854271   67.287964   49.336617
H   95.855804   79.794159   76.406204
H   19.030766   42.948502   66.768234
H    3.321859    4.319413   26.790009
H   91.309006   64.221031   98.688225
H   44.581223   39.423973   12.412633
H    6.153218   68.727303   11.988956
H   43.704811   28.013790   41.504051
H   52.298534   15.417295    5.545672
H   21.761269   55.257004   42.022095
H    4.213066   74.410797   97.983887
H   79.270378   84.301987   15.123456
H   42.275734   37.152370   22.787313
H   21.628666   54.064781    7.913120
H   61.037872   18.340324   44.081219
H   40.944801   64.142448   39.517960
H   46.102455   88.681404   70.466949
H   88.621483   40.869678   85.280838
H   74.061287   64.077896   68.478004
H   30.215549   92.309959   28.443079
H   97.829224   32.047634   61.529713
H   58.298862   55.187038   39.168793
H   38.637955   39.813534   93.385422
H   10.264808    8.056038   70.481728
H   76.006554   49.912399   29.234655
H   98.861343   40.110882   45.702236
H   35.982841   30.581226    4.804756
H   16.564693   83.625938   48.168831
H   63.689140   10.070046   46.716171
H   27.277920   95.113129   33.703533
H   11.810971   37.712193   73.633331
H   87.395958   80.392090   50.185108
H   72.096710   60.419651   90.758125
H   71.569443   95.891037   84.063782
H   88.700233   35.574562   95.906517
H   81.619225   80.190552   14.610771
H   17.742989   59.379494   64.323250
H   75.918793   87.992081    3.371016
H   43.599171   95.095604   98.373581
H   56.085819   82.791016   82.318764
H   86.025528   61.829609   22.886538
H    1.976078   86.935875   53.347637
H   21.579082   50.247620   95.529724
H   38.912994   87.363525   64.103905
H   42.760368   15.822000   88.085732
H   23.204142   72.847664   22.115812
H   36.710167   70.523354   90.951317
H   24.258631   78.240982   45.474926
