100
TIME:    0.522, STEP:   522
H   82.021889   74.151283   98.668106
H   86.749825   33.046787   10.927886
H   88.733124   11.458898   17.210732
H   81.564224   11.143324   11.550166
H   90.495544   14.598123   51.551384
H   19.921814    0.645517   30.440706
H   25.612904   96.584770   31.273851
H   78.858124   33.761501   60.266693
H   40.796242   36.105301   67.230324
H   60.575142   23.880661   28.130854
H   51.699860   87.246445   89.467766
H   35.917477   49.855782   55.772331
H   10.058471   30.125809   73.245781
H   29.235401    3.467821   96.963661
H   86.851326   23.396582   25.679880
H   80.535370   66.080330   89.709457
H   82.098534   16.517685   20.881792
H   12.299220   69.315765   81.449509
H   53.392670    0.250065   90.864227
H   78.519325   94.587463   51.799919
H   33.300323    4.249968   43.074982
H   12.400674   44.788918   74.808846
H   78.774574   90.376823   17.414787
H   70.542068   42.942326   68.307602
H   10.914309   44.775990   40.413284
H   44.265476   12.055875   40.246284
H   17.065744   20.777721   10.324621
H   88.496208   80.804382   84.028885
H   22.521652   96.452202   32.496307
H   21.009161   77.920273   24.885834
H   36.635746   68.853004   68.105156
H   98.716888   38.089119   50.939919
H    7.126247   30.289770   44.822838
H    0.157484   25.884399   49.759880
H   67.796700   19.461136   56.513481
H   17.941002   25.491579   18.848204
H   29.865932   85.418800   49.596813
H   42.414612   49.400127   59.276302
H   27.252666   69.364830   92.095230
H   14.027222   63.316296   79.104485
H   99.569748   74.090889   54.639591
H   84.706779   35.285530   27.324453
H   15.737185   66.630219   39.177711
H   46.025833   21.519575   31.770279
H   11.376205   11.296451    0.775976
H   71.284660   73.017143   85.365318
H   41.591908   53.900928   32.083687
H   56.267292    0.757819    0.876367
H   80.287956   89.217453   23.650793
H   36.837795   38.694569   47.154808
H   43.504795   19.247900   58.920765
H   30.500414   15.300911   39.794014
H   19.707354   25.035461   72.554115
H   64.600861   98.685188   54.850666
H   99.202499    4.265697    4.835577
H   94.219376   11.983347   74.856689
H   29.344322   74.484810    5.633955
H   87.189636   27.590508    0.108976
H   31.445877   60.824432   71.410141
H   24.572327   67.911469   48.762657
H   92.628494   54.294304   73.695770
H   80.384338   23.086655   71.737305
H    9.639393   71.556984   97.746681
H   78.884651   44.634033   12.967184
H   53.042351   19.152565   44.174225
H   69.278084   16.322926   77.050575
H   45.687889   66.407196   92.263901
H   44.307747   47.391220   91.157219
H   82.918846   12.278725   27.493313
H   40.960640   74.399559    0.633077
H    5.455809   59.887379   55.886845
H   30.926069   34.201454   94.839729
H   72.956314   92.487007   48.364414
H   18.701324   16.346170   72.184593
H   87.339523   29.386442   40.969410
H   37.999538   41.028053   60.804455
H   14.348826   81.301384    0.270845
H   56.504837   16.588070   43.268848
H   86.573235   51.973484   23.508942
H   73.925644   80.525734   75.950439
H   21.096966   34.681988   11.187571
H   80.489571   47.636612   43.129868
H   50.823971   15.970153   79.617828
H   86.078583   56.829807   15.751198
H   26.912855   16.231781   97.150520
H   39.278744   28.227776   78.032463
H    2.017920   65.399269   48.434109
H   64.358337   63.501411   90.313576
H   66.515816   65.107994   23.929825
H   20.184341   87.806900   42.873272
H   45.384953    1.618826   44.485424
H   16.909670   34.765038   43.469612
H   18.776321   43.271378   59.298210
H   97.680458   44.896210   62.013096
H   47.567204    2.971241   28.081028
H   37.036667   75.118034   40.487068
H   21.168451   97.637077    7.168154
H    8.781764   20.682190   47.683670
H   83.845268   39.100430    1.327045
H   71.659439   65.297081   47.410141
