100
TIME:    4.042, STEP:  4042
H   43.977936   51.349304   95.445450
H   88.845772   23.893343   32.966461
H   49.233025   64.701653   75.896706
H   82.155045   66.119804   18.606855
H   58.967224   96.741631   56.109116
H   65.346199   96.829094   79.039207
H   41.128902   34.272961    6.542655
H    2.193069   38.286053   37.071087
H   54.267860   97.671463   45.657879
H   64.383324   74.420494   65.972412
H   24.278030   28.880970   50.403156
H    1.566831   26.295008    5.215472
H   86.138809   17.162430   23.388748
H   54.944633   92.617287   64.839279
H   29.667763    8.979822   56.478458
H   39.005005   58.200981   97.519470
H   99.073433   49.316776   41.347557
H   87.512657   98.138023   59.413723
H    8.223862   47.921394   76.309784
H   83.619560   19.979830   91.530815
H   24.418701   53.824169   47.535484
H   49.890823   49.449799   75.064651
H   31.777504   61.748894   16.703480
H   43.495918   85.159119    6.878329
H   85.019440   65.609756   66.390907
H   28.122114    7.172450   10.314190
H   13.532286   74.457230   80.169472
H   91.489838   45.106598    0.376887
H   99.059738   15.813994   66.104713
H   55.981216   90.799919    4.716365
H   75.134590   84.509377   89.588768
H   20.971388   40.834702   25.075844
H   55.071278   72.750450   61.932236
H   48.885956    3.297621    1.468936
H   80.297653   53.375938   70.856888
H   23.999964    2.005385    6.734715
H   67.478561   56.509262   26.958975
H   96.929878   84.980507    7.674977
H   74.459656   93.350334   52.612267
H   82.481926   33.784569   56.051289
H   59.009567   94.875900   37.573467
H   68.349197   93.264648   92.698349
H   46.056950   87.738617   93.431938
H   21.249788   80.511139   75.939575
H    6.042479   72.413208    1.995144
H   25.940319   40.011768   99.579628
H   73.312790   44.655968   64.267082
H   56.455280   37.001251   18.673943
H   83.181625   97.691986   83.237518
H   10.650371   92.257057    0.962643
H   43.236240   79.414314   96.035019
H    1.567003   88.671906    8.711246
H   92.716805   45.445618   68.117622
H   83.089134   41.257561   10.179095
H   18.963882   12.819155   34.725697
H   98.623672    8.282187   55.027588
H   52.496029   72.916435   40.415352
H   25.080070   95.170311    9.442045
H    9.061369    9.552832    1.176159
H   92.288971   38.469967   48.646492
H   14.672882   90.600731   99.250526
H   55.456139   90.319717   12.465550
H   48.472263   31.464745   56.298393
H   20.595949   63.781982   17.398685
H   92.755974   38.016079   71.982872
H   53.038643   41.332954   85.178391
H   63.271317   88.104919   62.210125
H    1.157038   48.703873   59.433575
H   58.356514   59.353989    6.724461
H   12.277689   51.444382   93.221832
H   93.679955   20.382168   13.660995
H   40.685677   17.379242   52.558796
H   43.445908   18.373058   58.113960
H   41.231258   93.593498   62.992088
H   57.051037   34.401409    7.808687
H   21.211969   66.628380   23.954556
H   33.942101   76.213425   62.533878
H   21.880840   86.424263   37.664734
H   55.339890   41.646099   62.783646
H    1.297784   88.817894   72.699333
H   89.971115   71.098007   21.569677
H   44.601395   70.624893   48.788208
H   73.535408   74.726257   14.880505
H   28.233679   58.041817   94.243118
H   55.517654   96.054420   55.925827
H   58.268055   57.525703   22.472122
H   37.110771    9.466606   16.281828
H   21.018396   81.682045   53.707695
H   39.567490   69.120140   95.132454
H    8.971068   42.977623   68.707062
H   89.437866   91.688164   18.821451
H   77.363495   99.481010   10.544975
H   44.553474   48.797974   31.578592
H   37.902645   58.411148   99.350426
H   86.706062   87.671684    8.968299
H   27.774246   36.116463   58.674400
H   41.767120   99.642906    4.729605
H   21.702993   50.652893   91.357887
H   16.161644   54.273769    6.476288
H   90.275520   74.907539    8.360984
