100
TIME:    9.172, STEP:  9172
H   97.057526   80.905586   90.748795
H   47.167557    1.880094   56.429981
H   37.429142   33.773796   15.675087
H   83.016098   54.764397   37.413971
H   13.010195    7.933419   17.015385
H   85.786621   91.271385   87.079895
H   72.264336   80.675621    7.715527
H   98.985184   82.096298   66.052132
H   28.162605    4.441543   22.742098
H   24.239248   48.081333   66.841621
H   47.097931   35.296234   56.254692
H    5.769867   83.435677   40.055641
H   58.881668    6.819954   13.619694
H    0.939432   76.805214   55.234295
H   92.009102   50.744576    9.820152
H   32.737762    9.512332   71.684631
H   86.549263   88.627525    8.351698
H   97.203445   48.529350   81.579178
H   88.123779   63.132168   46.577351
H   45.404728   11.036299   40.804985
H   19.997231   43.116104    8.300568
H   41.708920   56.259949   38.197739
H   63.282784   20.032557   69.928635
H   66.847748   46.551971   25.881361
H    1.541884   58.775970    4.275245
H    4.359200   55.712936   27.755625
H   71.167961   61.209766   81.953781
H   58.634094   84.557663   69.951927
H   10.607282   81.247734   23.606293
H   52.687920   63.832443   12.536434
H   77.032570   44.526516   83.719650
H   44.882923   99.101288   50.166084
H   16.419815   97.415710   24.083151
H   65.640945   33.163544   85.350136
H   52.690041   65.220894   83.084839
H   69.943802    3.822471   90.591438
H   59.512352   68.636482   31.182943
H   84.896049   91.100563   69.682747
H   57.920765   81.575523   55.477341
H   99.293930   53.531990   59.669518
H    8.410604   70.894104   58.432827
H   27.247803   77.571167   48.207066
H   90.221405   18.508633   63.974606
H   93.683510   66.601112   77.523140
H   61.051834   70.022942   40.985332
H   59.732040   37.852673   20.423590
H   13.399983   23.643236   13.511703
H   56.747433   89.838623   36.088535
H   33.136627   72.824562   78.600098
H   18.304121   70.340324   42.226742
H   42.871799   84.145836   50.116150
H   50.888500   12.645134   71.951302
H   99.118385   75.191101   70.178360
H   64.284851   57.558372   36.550484
H   10.506363   62.396072   78.352570
H    5.019474    2.885670   80.390259
H   77.716324   24.892525   28.321081
H   43.089539   10.704744   77.305077
H   13.654861   26.318766    7.350576
H   53.760410   32.778698    2.737083
H   38.278568   52.029675   99.276085
H   73.385704   42.570389   80.351799
H   96.747375   81.402000    4.518890
H   72.865601   91.726776   78.120834
H   96.374802   28.291050   49.717289
H   37.898323   86.306389   88.504585
H   51.681961   65.459412    9.885899
H   46.793045   42.094368    4.677246
H   14.032310   90.744919   84.980957
H   16.303543    9.331223   82.389954
H   30.773376   71.336800   52.130989
H   17.975569   47.054100   28.350048
H    8.960320   64.624016   26.579128
H   28.298138   68.922890   58.184364
H    4.296055   41.820515   96.728958
H   42.490425   95.411736   78.769547
H   99.795731   31.940533   53.411423
H   62.889454   50.992607   20.984726
H    1.345476   26.577663   20.016382
H   49.721581    9.376692   30.745140
H   90.372627   24.170908   28.181358
H   29.555859    3.956230   19.674753
H   98.022636   60.506504    3.437245
H   81.167595   97.026833   25.697041
H    5.731155   75.155869   58.631104
H   40.198574   45.957397   78.714661
H   79.731987   36.473045   60.899544
H    3.539745   71.122963    0.478652
H   46.030521   83.490257   53.175667
H   55.411533   31.915451   52.092201
H   99.378685   68.690262   27.157982
H   56.934017   85.301727    8.292115
H   73.396423    2.719157   28.289423
H   33.703651   69.627548   45.251415
H   98.010910   28.157696   26.847971
H   51.491196   33.539001   93.703003
H   34.571739   94.041191    9.697819
H   20.573229   40.290829   94.750206
H   71.780144   76.409111   76.786766
H    8.920490   43.265369   14.171640
