100
TIME:    4.443, STEP:  4443
H   16.860382   14.575500   95.078323
H   77.770790   45.624168   58.252296
H   56.125824   93.551674   71.191368
H   82.222351   49.599113   96.626472
H   55.375504   28.883547   45.236053
H   59.127125   96.394661   18.751078
H   20.113106   61.351597   37.901394
H   70.675255   72.977234    0.251690
H   44.410515   59.117065   20.415579
H   53.424599   80.178261   81.673187
H   86.977997   45.016178   11.777592
H   86.263466   46.395180   76.671623
H   60.550095   92.912651   83.543213
H   35.089211   91.381294   95.353607
H   34.545158   73.160797   37.201260
H   22.881168   23.128166   64.233337
H   66.827492   75.839966   77.852165
H   96.079918   78.635780   45.509228
H   14.469601   64.744827   97.437912
H   72.813805   11.464025   18.832682
H    0.622809   13.902225   36.653244
H   88.335083   49.982132   40.915771
H   26.423576   58.487587    5.229966
H    6.238683   89.968475   77.097656
H   70.677032   33.807579   69.352394
H   26.292620   95.308182   72.618156
H   78.954475   57.788548   88.123878
H   57.653591   63.823929   13.632447
H    7.779590   52.195553   47.148750
H   71.357697   80.875267   36.593910
H   90.914909   20.468208   57.862923
H   46.290874   29.756660   87.953300
H   83.316505   43.410927   98.057480
H   65.828842   66.548309   84.575111
H   70.330170   23.063530   95.276917
H   58.859959   33.423862    5.459661
H    5.940886   41.824203   58.556324
H   80.354118   77.644096   35.971470
H   57.533955   84.612724   13.752649
H   44.712296   96.244118   87.600464
H   31.603600    8.635289   47.020855
H   32.309616   11.261563   11.537464
H   49.510998   90.143295   22.396719
H   95.643890   87.229553   15.148095
H   71.257515   56.591492   36.310566
H   20.766895   47.660236    1.209105
H   76.445602   66.463280   68.115791
H   56.476696   41.131424   43.485573
H   94.905197   64.479279   67.243042
H   19.060627   98.357475   72.914284
H   43.205647   40.700829    0.263047
H   21.053770   51.462605   82.387360
H    1.032523   47.770752   44.827045
H   73.800835   34.713531   27.873062
H   87.036407   47.962337   38.136913
H   99.125412    7.860118   41.376602
H   77.918152   61.345833   78.553673
H   95.220840   57.301216   99.112778
H   40.686256   26.496956   70.392540
H   65.825272   69.292770   37.241096
H   39.968903   71.950706   67.983589
H   41.223869   86.587265   94.321671
H   75.696434    4.100389   28.800621
H   48.132858   65.966080    6.510326
H    8.671918    5.988574    9.326133
H   28.404457   21.397987    8.888354
H   31.098757    1.969785   81.569931
H   73.457314   71.637039   78.603691
H   78.341293   30.540680   81.575653
H   20.401892   71.613770   92.377441
H   80.946785   93.097855    8.850109
H    7.621940    4.070335   81.917870
H   17.299524   98.538826   47.831360
H   32.401867   68.218941   39.165581
H   76.385262   34.973515   38.207973
H   30.693010   92.327232   96.972488
H   70.351334   41.456799   69.625542
H   40.720547   60.204868   59.811638
H   74.569817   40.468235   67.257301
H   81.632019   66.979988   38.152733
H   97.815384   75.246536   45.536251
H   74.689384   73.243729   15.256559
H   98.903084   81.421936   53.073483
H   55.820381   92.355904   57.616669
H   35.992645   70.973564   17.053253
H   49.037884   72.254936   50.318665
H   63.892647   80.310623   35.403000
H   27.472174   49.576836   49.537750
H   47.889023   46.792732   91.852791
H   73.518326   26.478348   83.043350
H    5.848544   13.341457   27.289835
H    7.034046   29.636955   18.186071
H   70.258446   60.830544   62.588543
H   76.661026   82.733978   26.387686
H   79.773491   51.753433   18.182228
H   60.895172   20.282207   37.962349
H    9.938170   22.655087   81.667786
H   23.174559   54.067169   84.939293
H   97.058990   56.002323   72.889748
H   15.183533   64.615761   69.732666
