200
TIME:    0.101, STEP:   101
H    5.199959   62.936306   12.962763
H   26.725372   30.848776   84.254333
H   21.051111   63.054146   38.501701
H   13.157095   75.349098   48.134510
H   16.686003   80.206314   55.656986
H   94.140503   56.587673   69.664116
H    1.345403   55.402756   46.960911
H   99.773727   82.884033   30.006241
H   81.783508   89.590080   51.110321
H   15.754284   76.845940    1.555068
H    7.348714   91.624825   88.569138
H   30.203018   38.312733    6.119164
H    7.762591   82.394768   66.988609
H   10.973923   52.620487   35.567776
H   26.332890   70.874557   43.320599
H   33.351974   31.693520   57.321529
H   77.668457    1.208496   22.180716
H   39.862942   76.484917   45.995010
H   60.400646   34.734043   40.437626
H   89.614029   81.613548   42.859051
H   56.416931   69.819496   32.208691
H   93.123528   43.501335   75.931206
H   99.167618   63.552101   52.471436
H    5.683983   86.824074   92.026993
H   97.204834    7.113485   50.370243
H   18.776155   56.167961   11.547392
H   96.204247   56.007679   43.493103
H   91.320343   64.395386    0.365528
H    5.214212   60.754707   39.152287
H   99.330681   17.040714    3.434007
H   13.542968   45.642033   16.024870
H   34.453720   60.248520   90.180939
H   30.481857    5.994571   71.481316
H    1.027061   63.426270   35.860725
H   54.658894   95.544601   35.276394
H   37.601727   53.091213   77.882568
H   82.274918   77.429115   84.911415
H   39.790565   41.159737   21.417150
H   58.214668   51.378006   41.341908
H   91.415779   40.260090   69.126068
H   80.463058   11.717314   96.910255
H    6.420717   46.021633   43.952717
H   79.204605   90.975052   45.166897
H   37.590927   56.483433   13.777043
H   24.027885   72.054268   39.347816
H   43.015858   17.455999   41.176155
H   77.354752   33.022091   93.131172
H   93.499832   65.552727   52.644669
H   81.704765   34.027020   61.066116
H   67.091278   17.174227   11.593192
H   81.514832   72.255463   33.377426
H   26.451681   33.305523   60.552662
H   48.428478   98.400116    6.109690
H   24.475336   79.250397   79.644760
H   83.082474   79.476250   95.268753
H    7.087536   75.774368   74.096619
H    5.827172   16.219460   51.145634
H   65.890060   55.348095    7.812218
H   31.114201   71.792313    3.764613
H   46.318153   96.769691   69.563789
H   50.869694   18.088333   46.297634
H   87.439247   16.095602   48.000923
H   67.617897   22.326984   89.574387
H   20.758200   64.954025    0.564057
H   69.113930   74.006882   12.245576
H   44.192188   11.160985   30.364792
H   91.367287   26.093966   82.963326
H   98.119820   91.133904   84.519592
H   11.578355    3.974862   63.739151
H   46.037102   39.207306   50.990017
H   58.526142   74.188011   69.563278
H   36.046791   27.475471   45.737823
H   73.082169   23.260036    4.149994
H    3.336951   12.019952   56.526344
H   77.452499   98.621330   74.148491
H   49.800369   23.984001   63.785778
H   96.015091   24.775557   74.111717
H   31.703634    3.438816   52.720634
H   10.473785   23.500454   38.017048
H   70.370552   91.442162    0.853626
H   37.468616   32.451241    3.196864
H   20.524614   71.089813   92.154320
H   11.542019   12.141587   94.346680
H   29.206848   57.314354   89.321136
H   43.858036   97.854019   61.721371
H   20.751104   90.637711   30.676357
H   29.625395    2.494464    1.452664
H   76.487419   23.717659    6.199435
H   61.436123   71.704948   76.660477
H   24.140339   79.816803   56.394726
H   47.069458   33.692856   81.372749
H   85.023651   87.315903   95.334854
H   40.656578   18.429762   99.688622
H   66.261063   99.427475   65.287979
H   21.602762   58.806442   62.150589
H   75.028389   24.601543   35.597046
H   77.420052   19.086885   92.342781
H   10.715889   26.278765   47.277508
H   40.167549   71.170448   52.388653
H   64.787582   95.668549   27.216471
H    3.664615   76.583191   62.394344
H   85.403496   74.553627   66.631332
H   20.298056   42.249680   28.560297
H   15.196697   67.682846   84.642540
H   25.522999   29.299419   20.581001
H   81.920242   33.578346   50.398441
H   59.073750   28.370840   56.906128
H   65.569893   28.937481   24.116413
H   69.264084   41.844227   92.411232
H   99.901596   29.998426    4.856963
H   45.365734   97.274673    0.698054
H   80.412621   59.849407   88.927856
H   59.508236   78.661659   96.958817
H   63.695030   22.394014   78.538422
H   68.488823   76.180435   31.646387
H   19.711079    9.863745   72.663734
H   38.289898    6.485400   82.559677
H   41.476337   20.154755   36.756981
H   13.583508   52.494961   90.409485
H   67.114410   43.900631   44.157513
H   39.103828   20.835751   92.074615
H   24.286674   30.772839   44.099461
H   28.885260   27.684933   19.905716
H    6.125242   72.321136   23.952127
H   81.075462   12.393255   97.410439
H   42.629894   58.548996   28.215210
H   98.841698   48.540909   76.422943
H   78.469086   86.479790   33.828617
H   90.757156   57.515144   88.057938
H   61.007927   24.808172   64.133545
H   42.997925   90.148773   98.099388
H   87.035309   84.672745    6.049063
H   92.891640   75.832016   96.341179
H    7.736458    9.439061   47.995998
H   97.559395    3.883435   62.804192
H   66.060234    1.805244   85.729401
H   68.662590   86.210320   48.418991
H   90.032722   68.560432   85.394638
H   42.680008   42.389763   71.582962
H   43.372650   15.756542   99.319778
H   43.736164   67.156715   10.419979
H   63.637268   36.787441   43.006577
H   59.473858   54.202568    4.072560
H   64.082359   31.559435   75.821053
H   33.768284   74.377007   44.523304
H   40.847149   59.580624   36.503368
H   41.443748   97.386513   48.277161
H   46.447922   78.592804   69.622459
H   61.469334   70.595261   99.326271
H    5.011175   87.125938   95.193604
H   81.119667   58.949306   52.393547
H   27.936321   10.955803   52.508274
H   69.718452   37.036030    8.344364
H    6.235441   97.951897   79.387436
H    8.100662   50.208168   58.238270
H   59.375748   43.184246   49.784550
H   57.856274   56.715347   79.109909
H   44.069851   38.890099    6.467615
H   18.743582    2.258079    7.759606
H   65.237640   62.615295   72.906830
H   52.590572   90.056473   87.111679
H   50.130337   23.776636   36.748158
H   59.236095   40.630093   37.289848
H    6.172549   16.096260   77.145996
H   60.285095   17.371851    8.458772
H    9.518853   68.861473   63.061661
H   77.293350   99.815193   50.748154
H   23.510788   24.608356   42.264881
H   92.184235   28.622242   37.185154
H   20.129658   11.508667   91.968628
H   82.020447    3.980787   35.987740
H   50.964821   70.609558   57.031269
H   34.987263   83.426895   94.335098
H   72.933830   77.876328   71.024338
H   77.898346   96.082184    5.766780
H   96.615639   46.910027   23.153389
H   36.845688   48.578991   81.093323
H    0.498078    9.068298   63.102825
H   79.156319   24.610865   70.760567
H   92.912659   52.964058   84.424164
H   83.955559   80.208313   44.951130
H   16.424007   29.936367   64.541740
H   72.034119   90.309982    3.318939
H   48.454292   24.962906   72.076622
H   83.725441   94.363243   78.969498
H   96.350456   35.050873   83.258522
H   26.512234    6.905557   96.185501
H   97.098930   61.336975   20.662893
H   10.643717   60.553551   64.954803
H   47.085903   59.029438   63.946857
H   41.180038   35.623142   80.294075
H   48.792408   81.151749   26.394869
H    1.012960   14.217164   54.622105
H   37.532078   57.983150   30.511868
H   89.664673   60.463951   22.270967
H   74.988785   10.042367   31.470739
H    8.537332   81.769234   98.775162
H   32.949207    0.168721   50.886799
H   13.766907   11.222961   84.233635
H    9.457553   39.701828   99.679939
