100
TIME:    4.827, STEP:  4827
H   90.892494   79.360878   94.726761
H   67.165321   66.433395   82.463928
H   62.726410   21.177528   66.685509
H   82.286804   33.778801   75.579597
H   51.936050   59.662842   34.823944
H   53.171070   95.978645   56.780842
H   99.988060   87.279633   67.930695
H   40.493614    6.199438   64.995811
H   34.971062   22.197144   96.243935
H   42.930458   85.691933   96.708344
H   51.259247   60.467350   74.787842
H   71.609169   65.643227   49.337639
H   36.046188   69.691948   45.386963
H   16.076767   90.197701   24.576746
H   39.215080   38.860016   18.742352
H    7.440264   89.541885   32.358337
H   35.948586    1.240249   12.809202
H    4.290153   59.950871   32.196728
H   20.450558   80.852249   17.667887
H   62.466583    3.309240   44.977211
H   77.835701   75.674652   26.231533
H   25.149536   50.491898    8.214600
H   21.296623   55.364540   94.243286
H   70.560883   94.573212   48.578491
H   56.942657    3.353477   72.188332
H   24.542131   83.958572   36.509060
H   45.841537   41.824680   95.741066
H   25.253872   81.747757   26.326647
H   16.129921   87.035393   28.996651
H   86.082306   71.371361   67.121254
H    6.027074   54.901318   27.482063
H   70.536964   19.148262   52.404472
H   10.364220   15.316095   32.651237
H   82.053452   31.356903   68.397377
H   60.785248   94.035782   18.659355
H   92.240814   63.500034    4.251532
H   42.771004   27.761261   88.814133
H   64.481071   70.618706   63.068150
H   41.323994   76.245537   76.540237
H    8.544352   60.296547   17.812269
H    5.360887   21.810095   56.067730
H   97.797203   28.495745   29.576181
H   52.818615   92.446030   50.132576
H   71.122406   93.663879   52.694168
H   37.949261   41.442078   69.169945
H   15.812765   54.984455    2.770125
H   79.445602   87.346092   71.801338
H   56.497204   45.086502   67.245338
H    6.130348   32.677479   51.924324
H   27.114338    4.201376   46.056870
H   43.176350    3.627443    4.311144
H   39.715019   15.829481   57.179535
H    8.997863   49.997314   22.523958
H   64.906303   28.446930   44.818016
H   56.462189   81.617195   41.403515
H   99.605881    7.456187   28.304337
H    2.263649   50.265755   15.075443
H   66.627090   21.037100   89.222153
H   70.971107   42.722061   40.911728
H   40.486195   98.806442   26.319221
H   64.191559   54.092960   38.044724
H   27.595438   83.013046   76.948624
H    1.764901   77.897141    2.468579
H   74.501808   68.057877   96.084671
H   23.913618   75.320251   45.086826
H    4.815670    2.308655   31.593237
H    0.288768   15.245097    0.109000
H   46.931923   93.597977   96.961113
H   97.478012    2.948890   57.492828
H   28.181677   90.926270   91.568848
H   68.753426   66.970901    4.243474
H   75.958344   91.326065   10.031699
H   92.261490   79.542732   37.984680
H   23.947636   43.917690   16.349590
H   94.900887   35.521366   67.317352
H   39.772110   16.937735   71.132645
H    5.214870    8.173668   76.416557
H   58.761562   35.094517   81.017296
H   92.985832   39.340305   71.540504
H   62.799988   46.065365    5.070911
H    5.328898   79.219193   68.487419
H    3.500215   75.751541   83.146507
H   23.192873   87.843811   89.642715
H   82.239395   25.216051   22.545380
H   17.294226   46.953903   79.828941
H   40.199017   86.358452   76.984680
H   89.539131   52.390701   53.713547
H   33.652740   18.833323   45.544586
H   55.857773   25.412325   88.712166
H   39.566998   10.678543   96.771866
H   21.563438   34.076176   35.399212
H   35.448017   58.515717   25.502546
H   94.873680   72.355125   92.283859
H   13.775184    6.025436   52.277653
H   73.134819   17.355972   27.004982
H   92.611969    5.119153   18.128365
H   79.457939   44.692196   59.583801
H   24.583738   57.336700   78.792809
H   78.766022   57.657597   40.725517
H   39.034145   54.763042   32.739956
