100
TIME:    4.633, STEP:  4633
H    4.011930   97.151711   94.904373
H   72.523293   55.920570   70.232361
H   59.391739    7.220900   68.961906
H   82.254242   41.771355   86.212654
H   53.673691   44.112885   40.084229
H   56.180119   96.188820   37.567631
H   10.155396   74.180725   52.759640
H   55.741631   89.415527   82.807365
H   39.739952   40.849396    8.455549
H   48.232185   82.906380   89.112457
H   69.304657   52.661289   93.475616
H   79.012642   55.918953   63.146996
H   48.425766   81.423241   64.663818
H   25.681892   90.795662    9.812724
H   36.855797   56.189056   28.067738
H   15.241131    6.509916   48.461853
H   51.548866   88.407867   95.148613
H    0.141693   69.390327   38.922314
H   17.428928   72.714645    7.447769
H   67.693871    7.429106   31.768778
H   89.347939   94.987030   31.496998
H    6.550568   50.234360   24.735504
H   23.886803   56.942329   99.793671
H   88.585571   92.247223   62.987289
H   63.881378   18.739143   70.755592
H   25.426493   89.692490   54.751324
H   62.571136   49.889759   91.892799
H   41.622631   72.692490   19.913363
H   11.911269   69.434013   38.167122
H   78.643311   76.172813   51.698586
H   98.391869   37.505672   42.830727
H   58.287640   24.507713   70.364037
H   96.699074   29.509539   15.174184
H   73.856644   49.135895   76.570503
H   65.607422    8.700857    6.846656
H   75.376526   48.305302    4.861889
H   24.164324   34.866196   73.527634
H   72.500267   74.167992   49.378681
H   49.513401   80.472710   95.340500
H   26.816957   78.457710    2.548712
H   18.618942   15.154073   51.497173
H   15.233221   19.789042   20.463190
H   51.147579   91.282669   36.120445
H   83.510864   90.412842   33.725319
H   54.776546   49.095688   52.569111
H   18.315647   51.284199    1.981507
H   77.929977   76.795921   69.939369
H   56.486843   43.088364   55.241707
H    0.459903   48.743992   59.663780
H   23.045536    1.248572   59.624969
H   43.191151   22.357399    2.266012
H   30.286901   33.831303   69.915131
H    4.973695   48.872437   33.791355
H   69.399895   31.612869   36.257103
H   71.908539   64.613777   39.753201
H   99.363144    7.660256   34.908554
H   89.964203   55.863503   96.624199
H   81.072891   39.358253   94.218979
H   55.670616   34.525253   55.806000
H   53.287601   83.895889   31.837044
H   51.954071   63.114185   53.169891
H   34.480400   84.818771   85.725632
H   88.594841   91.135178   15.771751
H   61.180573   67.001083    1.351254
H   16.213385   90.813965   27.020491
H   16.732716   11.952633   20.122442
H   15.854197    8.538383   90.742905
H   60.332771   82.503128   87.686790
H   87.809982   16.888489   69.660065
H   24.251265   81.169434   91.977356
H   74.913612   80.170456    6.570751
H   91.955292   97.764511   95.828087
H    4.910692   89.139717   42.959305
H   28.218365   56.195141   27.876213
H   85.546638   35.244587   52.611050
H   35.185272    4.504080   84.187149
H   87.601395   24.988373   72.985680
H   49.647091   47.780476   70.304314
H   83.681908   39.910145   69.376595
H   72.314087   56.631817   21.784019
H    1.532626   77.212173   56.892300
H   88.944603   74.484573   99.368431
H   10.921343   84.599426   71.168076
H   68.891830    8.614645   40.263687
H   26.740980   59.089264   98.635124
H   44.664486   79.233238   63.512787
H   76.582314   66.496078   44.462906
H   30.530073   34.364891   47.561966
H   51.831894   36.213661   90.298836
H   56.719906   18.660736   89.836105
H   13.624167   23.600895   31.302286
H   21.093351   43.925514   21.806410
H   82.437859   66.532402   77.281540
H   95.024368   94.258179   39.197987
H   76.488731   34.733856   22.547653
H   76.588379   12.779724   28.148659
H   94.856926   33.558865   70.740814
H   23.871809   55.684906   81.898064
H   88.007782   56.821339   56.975563
H   26.984629   59.740627   51.429211
