100
TIME:    4.914, STEP:  4914
H   85.008949   71.382515   94.647110
H   64.762520   71.147400   87.949219
H   64.221954   27.436428   65.664650
H   82.301407   30.194344   70.811165
H   51.156799   66.636276   32.464951
H   51.821651   95.884392   65.396965
H   95.428047   93.153885   74.734207
H   33.655586   13.725928   57.007572
H   32.832436   13.832430   90.767937
H   40.552879   86.941124    0.114760
H   43.166718   63.968006   66.407242
H   68.289055   70.004112   43.144783
H   30.494522   64.431007   36.742188
H   11.769151   89.929543   31.197725
H   40.273109   31.088785   14.560291
H    3.942013   81.932571   25.136341
H   28.952583    6.994510   20.729155
H    6.150582   55.718090   29.180925
H   21.805618   84.501587   22.251131
H   60.122856    1.461678   50.900581
H   72.672997   67.013947   23.870216
H   33.490311   50.607391    0.805806
H   20.135048   54.656975   91.754196
H   62.477520   95.613983   42.116814
H   53.830963   96.454056   72.830849
H   24.145536   81.387177   28.328100
H   38.339088   38.207867   97.466835
H   17.913048   85.808624   29.202707
H   18.021629   94.928795   24.884342
H   89.418350   69.218132   74.037605
H    9.451232   62.702457   20.598900
H   76.030220   16.744797   44.350441
H   16.492512    8.950994   40.488884
H   85.729340   23.383850   64.732109
H   58.622726   87.459274   23.956802
H   99.803665   70.314171    3.977818
H   51.115097   24.574894   95.669418
H   60.885410   69.027016   69.207802
H   37.651424   74.349846   68.109192
H    0.349953   52.151581   24.657267
H   99.415176   24.795012   58.117413
H   89.978142   32.400330   33.662937
H   53.567997   92.967743   56.416367
H   65.566757   95.124146   61.200218
H   30.402933   38.009789   76.614647
H   14.690186   56.643848    3.123783
H   80.125290   92.077354   72.636345
H   56.501850   45.982574   72.628410
H    8.673264   25.472393   48.453537
H   28.939007    5.525572   39.972206
H   43.169712   95.228134    5.228291
H   43.943153    7.756530   51.467903
H   10.802453   50.501770   17.471106
H   62.891502   27.027153   48.657188
H   49.535217   89.242439   42.143604
H   99.714737    7.364672   25.342651
H    7.778974   47.755424   23.349861
H   60.148819   12.820845   86.981308
H   77.833031   46.397949   34.232338
H   34.745358    5.493628   23.844734
H   69.679504   50.047359   31.261787
H   24.507971   82.203262   73.012543
H    7.671361   71.960495   96.502716
H   80.475624   68.531799   93.723022
H   27.366816   68.372040   53.188648
H   99.471367   97.983696   36.737358
H   93.308685   18.252872    4.309544
H   40.922264   98.573502    1.120216
H    1.813905   96.697639   52.036079
H   29.944284   95.301758   91.385651
H   65.990868   61.051514    3.199767
H   68.784454   88.438721   16.401447
H   86.589020   75.238930   35.753792
H   22.032696   38.411823   11.180580
H   99.095833   35.645489   73.912445
H   41.829094   22.513628   65.278305
H   13.113943    0.633038   77.955147
H   62.848980   29.405605   85.821571
H   97.158211   39.084759   72.510918
H   58.533356   41.326801   97.575836
H    7.031353   80.119247   73.687294
H   10.028106   76.319717   75.871727
H   28.696085   89.298767   97.927734
H   88.225159   32.661057   14.599511
H   13.057910   41.511757   71.395241
H   38.196461   89.553780   83.026199
H   95.349663   46.065094   57.862030
H   35.053268   11.868086   44.639885
H   57.663193   20.568556   88.000618
H   31.874720    7.098900   99.882233
H   25.123833   38.773586   37.236492
H   41.885136   65.059036   27.159948
H    0.450553   74.966347   99.011703
H   22.184280   11.302670   58.143276
H   71.630745    9.562798   29.003887
H   99.797806    1.683766   13.634640
H   72.552208   49.684978   54.580399
H   24.903006   58.077454   77.400246
H   74.621521   58.032619   33.438126
H   44.437794   52.530827   24.358995
