100
TIME:    9.582, STEP:  9582
H   69.330475   43.306404   90.373428
H   35.844009   24.098255   82.281120
H   44.476643   63.271324   10.861797
H   83.084915   37.872917   14.940070
H    9.336298   40.796539    5.899141
H   79.430420   90.827202   27.683090
H   50.776546    8.359790   39.778057
H   66.759995   17.567142   28.406197
H   18.084023   65.021713   96.934196
H   13.039259   53.968327   82.894783
H    8.960724   51.793579   16.760515
H   90.122200    3.986798   10.872051
H   32.737411   82.002647   72.874283
H   80.638412   75.541481   86.434364
H   96.988960   14.121346   90.102318
H   16.251434   73.652145   37.651428
H   53.579597   15.746284   45.675613
H    5.972441   28.578636   67.365311
H   94.511261   80.330353   68.177628
H   34.359577    2.329367   68.719719
H   95.666763    2.299032   97.171326
H   81.016022   56.804230    3.282474
H   57.808693   16.699617   58.198441
H   28.751572   51.456757   95.431259
H   86.877670   26.259872    7.301635
H    2.425122   43.626144   89.173042
H   35.812225   44.165012   90.086716
H   24.040609    3.695074   83.502647
H   19.522701   18.446070    4.226372
H   68.409508   53.685043   45.129799
H   93.167061   81.291977   51.281754
H   70.770676   87.771484   12.210304
H   45.301117   67.417694   61.019188
H   82.964096   95.589653   68.077034
H   42.486336   34.178108    8.028768
H    5.584581   35.936810   89.302681
H   98.837860   53.621834   63.489460
H   67.948265   83.599495   98.617226
H   40.613255   72.641808   15.745468
H   60.675274   15.147685   91.926407
H   80.389877   84.964081   68.092247
H   92.694847   79.179092   69.136955
H   93.749847   20.968845   93.590996
H   67.507973   73.482826   17.610897
H   25.488726   53.848949   76.071609
H   54.442505   45.672802   22.089277
H   16.605602   45.942532   17.448851
H   56.772457   94.061493   61.457035
H   45.120193   38.868748   62.246307
H   26.909391   76.583916   13.559088
H   44.635822   44.698593   51.685471
H   70.814194   74.601181   45.037544
H    7.622461   77.568420   46.365417
H   54.791122   50.867470   54.643135
H   77.861610   98.325012   81.837219
H    5.530128    2.454390   66.432892
H    3.710074   13.062038   67.315376
H   12.560662   71.985359   66.744774
H   45.991772   43.644531   75.875755
H   26.705891   64.293793   91.075722
H   64.144409   32.964199   67.313652
H   58.834007   38.754166   61.802078
H   24.582256   53.424706   76.403961
H    1.018133   93.960205   66.991226
H   12.648177   95.543983   87.898293
H   12.712345   65.924004   12.747371
H   18.786739   79.635742   29.681774
H   18.471664   65.542244   24.277618
H   34.467796   61.284927   59.267796
H   24.630417   29.923441   81.520355
H   17.752861   43.438526   47.213692
H   84.212563   33.440819   58.401432
H   82.227844   44.344761   16.065746
H   19.273708   42.975109   33.823097
H   24.045012   42.424229   27.815161
H   52.184258   21.688690   51.181587
H   37.033150   96.453171   60.684143
H   82.151817   24.185204   43.628693
H   21.005758   25.373363   24.592722
H   29.614651   87.041939   95.423470
H   98.399208   28.412546   52.686516
H   60.320374    6.617811   85.373512
H   23.955740   67.363197   42.484669
H    9.375840   32.112137   88.249901
H   85.767929   49.507614   18.886595
H   30.761242   61.018967    7.186362
H    7.115025    6.662485   80.449867
H   10.133146   38.315956   96.230408
H   54.538822   60.661736   49.822395
H   19.161097   15.045868   66.747711
H   16.158255   90.830612   35.816429
H   87.269867   16.137568   16.102861
H   99.678314   15.021765   59.995354
H   71.534523   94.365097   75.650764
H   90.922745   91.432045   36.268806
H   85.355484   17.349623   72.526093
H    2.028594   17.569759   86.118240
H   19.781832   60.576244   86.517174
H   52.248589   78.179588   42.445049
H   34.386177   32.745731   74.675995
