100
TIME:    7.988, STEP:  7988
H   77.126457   89.483604   91.832779
H   79.867752   37.722363   81.774612
H   17.077333   48.592361   29.572723
H   82.817368    3.544025    2.312424
H   23.619692   13.030675   49.117279
H    4.143651   92.554100   69.825203
H   34.319340    0.724651   15.125172
H   92.045242   79.665123   74.762688
H   57.267586   18.279346   97.270462
H   56.579201   31.080843   20.482101
H   57.230728   87.657242   70.304169
H   50.962982   24.087536   24.334221
H   34.381569   78.482468   31.281775
H   59.563103   80.454628   65.131615
H   77.628242   56.505295   66.756866
H   80.342743   13.069393   69.967072
H   81.759529   10.315681    0.567506
H   71.885056    6.142990   22.622860
H   69.677979   13.458585   84.200684
H   77.304733   36.179470   60.192787
H   90.257484   60.987560   40.435299
H   28.197680   54.688171   39.026276
H   79.090889   29.657434    3.803405
H   76.858063   32.387909   13.815133
H   43.887032   52.672661   95.533119
H    9.943295   90.617233   39.176064
H   73.265488   10.424462   58.465328
H   58.536621   29.292532   30.812567
H   84.861992   73.825912   79.575340
H    7.289065   93.136154   18.411633
H   30.432955   38.355125   77.393944
H   70.124504   31.811596   59.774895
H   33.020588   84.042549   17.419081
H   15.613605   41.670113   35.228729
H   82.156349   54.866325   11.047592
H   67.020889   11.083264   94.313118
H   45.951900   11.997061   37.888393
H   33.833946   12.766279   86.132423
H    7.894763    7.373079   70.215843
H   10.813488   64.374481   66.514893
H   89.328720   30.270254   30.538298
H   27.028923   72.928101   87.761803
H   80.031952   11.405479   78.454567
H   69.281693   46.720604   61.758747
H   63.754883   16.727879   39.665070
H   75.013695   15.273009   15.613409
H    4.143438   59.252876    2.141291
H   56.675167   77.643799   62.829723
H   98.529793   70.883186   25.828876
H   93.449951   52.315907   25.011086
H   42.953098   98.453255   37.632263
H   93.344955   22.511366   49.674469
H   74.566139   68.325867   38.941200
H   91.709656   76.874374   84.305191
H    4.778077   58.635857   68.289581
H    3.544803    4.131123   20.696426
H    2.657400   59.056099   15.712861
H   31.252405   22.519430    7.801818
H   20.270767   76.290337   98.247070
H   31.893204   41.772831   36.412865
H   63.589825    7.093246   91.589027
H   15.408211   53.590897   33.922356
H   16.365459   62.196320   85.709320
H   91.561333   85.277069   10.263408
H   49.381271   22.855696   39.456955
H   10.633041   45.166130   18.497257
H   46.676575   24.528820   52.723125
H   28.580101   74.379448   48.075195
H   55.024323   75.819603   59.240631
H   92.256874   49.859829   84.901184
H   68.377403   51.898926   66.331184
H   15.475293   86.366600   41.563175
H   86.158279   23.193369   56.939724
H   54.358929   43.858875   28.533243
H   47.260742   40.077106    6.957218
H   14.496652   19.528278   58.437225
H   92.263390   34.418968   32.409225
H    7.270352   28.407162   55.588261
H   44.566025   30.055447    6.802378
H    7.786588   73.875114   32.747780
H   67.193428   11.921884   57.414764
H   40.709442   96.273941   18.728447
H   23.132990   40.705723   90.679520
H   99.711494   95.709351   33.836773
H   63.381058   49.222591   73.406029
H   67.450607    2.465590   96.494034
H    0.655240   22.559807    4.441953
H   84.498039   65.867493   12.754837
H   21.458271   49.412895   62.859261
H   60.093166   80.628433    9.769606
H   50.924580    4.761226    2.153811
H   69.330009   96.253708   85.730186
H   97.499817   67.199944   36.728882
H   19.275537   97.795616   65.417351
H   18.483810   34.213387   99.643097
H   53.697647   80.294861   54.858376
H   28.552191   26.093830   77.791374
H   22.858629   81.705345   18.522074
H   28.182976   71.296318   75.959084
H   35.376484   73.646896   28.230717
