100
TIME:    7.273, STEP:  7273
H   25.478716   55.051826   92.487381
H   99.614914   98.975945   36.691044
H    4.787002   97.153221   37.967205
H   82.697357   33.003754   41.505047
H   30.026609   55.720364   68.504410
H   15.232337   93.328712   99.015366
H   71.790985   52.446369   59.211224
H   48.242836   17.809299   40.411392
H   74.843651   87.024017   42.277630
H   76.108162   20.814501   92.485115
H   23.738281   58.887486   39.177361
H   78.251587   88.248672   75.229118
H   79.974602   21.760326    2.336236
H   94.966164   82.658455   10.717930
H   68.943855   20.372612    1.145131
H    9.091408   75.605774   29.318724
H   39.255775   63.021793   35.478237
H   56.597454   40.934738   47.406036
H   58.541508   83.464630   46.530865
H   96.571854   51.360783   11.512217
H   32.686584   32.167267   59.838795
H   59.649933   53.738998   99.915176
H   88.637169   35.471382   24.261633
H   43.291519   23.834444   66.918549
H   69.460152    9.374107   90.252663
H   13.314495   11.693890    6.460635
H   34.919781   40.147125   44.276829
H   18.867393   95.918770    7.178197
H   69.315193    8.955675   13.373697
H   79.872559   10.833059   61.571159
H    2.292605   74.239029   33.962395
H   24.978786   51.564213   25.965996
H   82.657600   36.354591   53.006233
H   85.403008    7.195686   65.351334
H   99.950615    9.001839   67.548157
H    4.867409   55.081497   96.560585
H   77.373886   38.183228   81.549347
H   63.383774   25.852528   35.676575
H   38.077007   22.949881   39.504272
H   78.157677   31.309145   10.258599
H   38.193085    5.738979   13.693392
H   87.285042   70.124222   51.258732
H   73.878693    7.116472   26.810390
H   14.938753   34.719566   91.851067
H   25.777267   44.935772   78.480171
H   84.243584    1.637931   12.708612
H   98.554977   20.368698   95.277504
H   56.631527   70.279526   18.589535
H   77.626167   30.100147   54.352570
H   78.437744   41.433147   75.004738
H   43.002193   67.482300   30.094120
H   58.596493   88.858307   96.609436
H   59.737835   64.180054   80.464790
H    8.268356   88.537201   52.753372
H   61.707901   95.975471   62.211086
H    2.654272    4.883233   45.036713
H   57.327267   79.686974   47.710320
H   84.493332   90.042015   26.220076
H   63.881882   46.077213   53.137047
H   79.075386   86.814926   56.749168
H   18.486925   40.343254   47.335052
H   40.784950   60.246017   66.275681
H   67.825706   10.986308   34.739014
H   42.463787   81.382187   29.677410
H   20.999874   79.962311   72.871712
H   54.555511   80.711021   76.220367
H    4.041702   99.810059   18.202688
H   77.969826   33.488640   13.894057
H   19.386696   27.194931    4.081849
H   77.735619   13.949371   86.417679
H   91.081184    0.546782   74.906471
H   74.353004   10.107402   89.154366
H   32.778534   58.558926   75.270813
H   70.098763   89.111267   71.016693
H   12.819283   39.024288   52.745411
H   97.593254   73.704857    6.549356
H   27.326668   96.303291   19.728949
H   73.679092   75.157463   16.099390
H   10.281013   32.155628   98.823616
H   42.849869   12.824521   94.345833
H   53.195854    4.524880   14.680118
H   87.056709   91.637177   78.544640
H   77.909218   28.748327   22.586678
H   50.519642   34.525875   99.141716
H   98.194977   93.951927   42.716530
H   83.902939   76.204880   46.842468
H   52.902012   74.546120   70.348045
H   72.998863   23.080812   20.168205
H    6.617961   89.223610   68.707039
H   23.307577   10.043751   84.208755
H   21.663868   66.151146   87.054245
H   16.427248   42.478149   72.103554
H   51.666767   45.746174   81.436836
H   50.173309   54.417320   17.205973
H   30.847607   98.257828   83.212585
H   94.641541    8.529464   91.788841
H   85.306023   85.062393   18.912018
H   24.238749   46.326832   32.876785
H   62.244102   68.208778   35.847507
H   90.965614   91.997574   97.108597
