100
TIME:    2.177, STEP:  2177
H   70.100739   22.379227   97.152908
H   40.713066   22.777842   15.324413
H   17.175489   30.525620   97.780632
H   81.842010   42.958397   20.833996
H   75.671860   47.253666    6.677872
H   94.259163   98.849586   94.341118
H   38.873798    8.338297   60.697090
H   48.778389   76.939667    8.308464
H    0.113121   76.983673   63.054058
H   15.348814   47.641853   92.937798
H   97.755798   53.838779   30.050142
H   72.751846   32.812256   37.967339
H    4.784033   29.996010    8.753237
H   47.289070   98.365730   22.910519
H    6.979988   75.568909   46.126511
H   13.992065   21.320869   52.331802
H   49.039902   25.965492   71.563675
H   47.666130   88.833000   24.073147
H   79.171089   69.682800   78.054703
H   33.866158   59.580799   64.552925
H   35.090363   39.490429   98.156998
H   71.091461   46.973984   33.886597
H   56.677940   76.916817   70.063599
H   16.774666   62.791416   45.391655
H   51.721550   13.518509   52.624184
H   36.676861   62.738636   85.121696
H   74.354332   51.983036   43.166531
H   48.852554   58.054714   38.731739
H   58.507599   46.606239   54.264030
H   84.469597   36.959427   56.453701
H    1.738949   17.268610   37.145626
H    3.214377   92.365089   97.728294
H   23.702229    9.202888   93.918304
H   70.084572   74.213730   80.037842
H   26.658260   94.355499   57.291283
H   61.836285   55.499775   13.156095
H   88.601624   24.810141   80.004456
H   74.010536   19.108799   76.065697
H   53.182518   33.982239   33.344353
H   58.143597    8.379413    9.315596
H   86.467384   30.881907   93.633713
H   35.964844    9.561744    5.079075
H   29.992613   76.554764   58.719360
H   40.342583   49.257935   93.589645
H   67.815987   45.996510   42.403069
H   50.001255    4.439716   92.009895
H   58.737347   43.230804   46.353210
H   56.355679   17.797606    3.278364
H   28.666006   52.149494   57.634476
H   71.545708   63.884731   31.402325
H   43.378529   59.468300   76.370789
H   10.931192   61.730694   31.145977
H   54.039207   34.631714   76.433739
H   26.279179   71.689415   27.880819
H   67.450272   49.352894   18.878920
H   96.290146   10.244026   18.516586
H   34.263950   26.730827   63.038261
H   63.952972   71.296753   57.481400
H   61.971046   30.752905   44.354080
H   15.359901   95.118668    1.691438
H   97.027084   77.330513   44.659206
H   21.646286    7.680439   96.850998
H   21.896980   58.698326   84.207443
H   92.529907   53.636833   68.037926
H   18.730221   86.970734   98.300644
H   67.608711   34.047829   74.906578
H   12.903646   23.627886   72.167740
H   29.985634   42.042603   70.275787
H   65.405418   93.361000   23.694473
H   74.488342   57.641197   97.148987
H   52.903191   47.276817   36.037098
H   94.463867   79.274612   16.011034
H   65.047195   10.624058    5.926250
H   82.280907   11.614181   73.822975
H   67.131859   31.741312   66.429306
H   77.125282   47.098442   49.444515
H   64.613464   37.859009   29.550943
H   34.259747    8.371527   34.667728
H   65.905807   47.124195   41.966881
H   92.761086   90.389969   33.370613
H   53.484318   51.803722   10.103201
H    4.665274   58.445023    4.737722
H   55.541752   43.593597   37.248295
H   99.927193   98.450294   64.584961
H   46.327988   12.710840   36.716629
H    1.184430   89.019493   92.960625
H   12.551641   45.067291   27.351179
H   91.000565   30.998520   73.108253
H    0.860419   72.960396   10.389053
H   73.863022   19.706978    2.041445
H   13.114471   90.983459   79.435989
H   39.364498   59.235165   75.002754
H   24.964184   92.863571   87.333603
H   57.643917   45.284245   73.601646
H   18.952339   54.727997   66.111839
H   73.732849    9.764353   55.004105
H   89.802597   92.614220   11.988194
H   14.858338   34.773529   21.203014
H    5.006201   46.234486   62.692429
H   74.440384   22.784912   88.009308
