100
TIME:    8.693, STEP:  8693
H   29.449600   24.831652   91.187332
H   60.396774   75.925751   26.226055
H   29.195597   99.313721   21.297558
H   82.935699   74.498589   63.671410
H   17.302382   69.539536   30.001579
H   93.212524   91.790321   39.642868
H   97.370613   48.331703   70.257088
H   36.633636   40.656551   10.030772
H   39.937340   50.496201   52.894650
H   37.323372   41.203602   48.086830
H   91.653351   16.024021    2.396078
H   24.053230   59.425747   74.151939
H   89.425812   35.811234   61.220001
H   24.655756   78.281624   18.780857
H   86.191170   93.531227   32.854340
H   51.996872   51.407433   11.445723
H   25.067787   56.943996   64.746437
H   86.956284   71.837624   98.185135
H   80.661331   43.036182   21.343166
H   58.308697   21.208544    8.192408
H   48.421776   90.801361   21.301676
H   95.786720   55.624069   78.989044
H   69.678123   23.926405   83.632935
H   11.352495   40.821747   61.457409
H   18.673000   96.761139    0.739366
H    6.618582   69.833847   72.832748
H   12.471460   81.119888   72.452133
H   99.052155   62.199558   54.118439
H    0.191363   37.788662   46.248772
H   34.320503   75.687576   74.457275
H   58.181637    1.574370   21.616585
H   14.638489   12.334986   94.509544
H   82.680313   32.460594   80.931046
H   45.402435   77.061157    5.529761
H   64.610954    1.487943   53.942753
H   28.304823   66.305374   92.097084
H   13.571153   86.177986   93.439842
H    4.695404   99.864006   35.881844
H   78.138451   92.012718    1.896478
H   44.409821   98.373314   21.981352
H   41.146118   54.458374   47.147793
H   67.615189   75.692764   23.754322
H   86.099152   15.634501   29.377644
H   24.267010   58.558784   30.689922
H    2.602870   88.916603   99.994194
H   65.912895   28.717129   18.477579
H    9.655055   97.592415    8.911627
H   56.718197   84.905075    6.450996
H   19.136314   12.496513   97.705719
H    8.249943   63.046459   75.718773
H   42.904690   30.390827   45.065659
H   27.609118   57.093777    3.394576
H   89.185509   72.413696   97.996262
H   75.379852   65.374664   15.414405
H   48.645546   20.417566   74.281479
H    4.422880    3.389531   96.696548
H   47.349602   38.713768   82.764030
H   78.757263   55.940758   89.642601
H   75.875435    6.078384   44.124382
H   85.370476   95.960297   16.360985
H    8.061361   74.305420   36.621159
H   90.386345   47.028854    2.023109
H   64.229813   14.088073   37.365356
H   39.972614   89.117477   91.123474
H   77.364197   66.549561    5.109799
H   67.324196   10.118596   60.182362
H   90.112473   48.900639   86.759689
H   79.880707   14.699235   81.778275
H   90.159515   25.162788   15.022179
H    6.575250   85.271194   83.405899
H   45.986828    3.927754   57.875832
H   57.419022   62.958397   93.239609
H   40.191711   88.319664   38.861835
H   38.841312   99.240456   86.645454
H   81.222000   41.115200   60.410740
H   31.165194   64.714104   11.001216
H   56.292801   73.399780   44.914757
H   40.388821   82.311501   94.529053
H   78.373589   27.984638   14.670105
H   73.212578   35.471031   72.011528
H   80.995232   19.215433   99.551682
H   93.612198    0.846724   59.746689
H   67.726997   52.495884   57.821293
H   48.213242   56.038185   69.445274
H   29.054047    5.122108    5.064817
H   51.224140   28.361454   45.451584
H   47.740665   71.300240   38.059044
H   95.836388    9.451397    5.444963
H   36.090336   10.160271   57.093269
H   97.760391   51.624062   34.970963
H   79.776054   42.826847   17.042381
H   21.492868   49.275864   99.166237
H   42.691486   88.349083   91.247620
H   87.410172   40.567127   12.954113
H    6.293029   71.064346   15.842491
H   11.927794   52.454590   18.444420
H   72.592949   66.552193   37.246559
H   21.497812   16.590340    4.367964
H   94.598717   74.340675   16.907169
H   79.166534   55.555386   60.316723
