100
TIME:    4.515, STEP:  4515
H   11.991516    7.972854   95.012405
H   75.782265   49.525963   62.792397
H   57.363434   98.731728   70.346519
H   82.234436   46.632805   92.680183
H   54.730606   34.654663   43.283783
H   58.010365   96.316658   25.881479
H   16.339577   66.213348   43.531887
H   65.016197   79.206482   93.641197
H   42.640617   52.194580   15.883440
H   51.456947   81.212074   84.492279
H   80.280731   47.913273    4.842197
H   83.515785   50.004189   71.546501
H   55.955612   88.558769   76.388916
H   31.524185   91.159370    0.832562
H   35.420769   66.729401   33.740017
H   19.985996   16.830803   58.256775
H   61.037697   80.602539   84.406609
H   97.619102   75.132240   43.013134
H   15.591030   67.764969    1.231327
H   70.873619    9.935003   23.734781
H   96.350227    6.734208   34.699326
H   95.237793   50.077713   34.784302
H   25.462273   57.902016    3.169892
H   99.549042   90.832001   71.750610
H   68.101837   28.097435   69.884132
H   25.964403   93.180130   65.847282
H   72.746101   54.795322   89.552101
H   51.578701   67.184647   16.012499
H    9.345279   58.728024   43.745186
H   74.118561   79.093285   42.317787
H   93.748283   26.924599   52.166512
H   50.837017   27.767586   81.287895
H   88.387794   38.142982    4.543812
H   68.870956   59.949921   81.541786
H   68.540497   17.620903   99.661560
H   65.118866   39.063145    5.233137
H   12.846598   39.187485   64.229660
H   77.377922   76.326836   41.052097
H   54.494587   83.043877    6.775495
H   37.930984   89.504005   93.265015
H   26.683098   11.105565   48.717144
H   25.838669   14.493054   14.920017
H   50.131176   90.575058   27.597372
H   91.046112   88.435852   22.187860
H   65.011787   53.750977   42.471699
H   19.838001   49.033527    1.501804
H   77.008102   70.378807   68.806831
H   56.480541   41.873001   47.940529
H   97.010178   58.516407   64.371216
H   20.570698   99.452812   67.878151
H   43.200153   33.749779    1.022066
H   24.552641   44.781269   77.661041
H    2.526011   48.188232   40.645100
H   72.133110   33.538544   31.050034
H   81.303741   54.272335   38.749401
H   99.215500    7.784381   38.925552
H   82.482971   59.268318   85.401451
H   89.859512   50.501778   97.258286
H   46.364540   29.539345   64.865318
H   61.074024   74.826584   35.193245
H   44.510651   68.602074   62.369736
H   38.668449   85.917099   91.064224
H   80.584251   99.187180   23.863365
H   53.077255   66.358292    4.555309
H   11.529737    0.237990   16.031363
H   23.981361   17.818642   13.145419
H   25.321871    4.458943   85.046005
H   68.483803   75.754715   82.045708
H   81.929428   25.367218   77.060272
H   21.860601   75.234863   92.225830
H   78.660530   88.199051    7.986310
H    1.685285    1.680737   87.189110
H   12.604792   94.977058   45.985107
H   30.816540   63.662868   34.887505
H   79.856941   35.076237   43.665981
H   32.395340   96.941490   92.127518
H   76.888199   35.216015   70.898857
H   44.103237   55.496677   63.788139
H   78.022820   40.256748   68.060402
H   78.101013   63.058834   31.949852
H   99.223831   75.991409   49.839596
H   80.091362   73.713943    9.235777
H    3.457284   82.626038   59.930599
H   60.773567   98.517036   51.040802
H   32.486908   66.470268   10.073756
H   47.380596   74.899345   55.318542
H   68.701363   75.075638   38.836227
H   28.630957   43.812309   48.789032
H   49.383163   42.783821   91.263924
H   67.152847   23.515884   85.617447
H    8.795127   17.229244   28.810343
H   12.361741   35.051567   19.557989
H   74.873802   62.991005   68.156418
H   83.619766   87.101044   31.242270
H   78.528740   45.303909   19.836494
H   66.842072   17.439220   34.243477
H    4.223220   26.787045   77.527039
H   23.438780   54.680206   83.786827
H   93.629059   56.312687   66.859352
H   19.655542   62.768230   62.796902
