100
TIME:    3.449, STEP:  3449
H   84.080719    5.730498   95.988358
H    5.329491   91.743805   95.561935
H   39.039932   22.038681   82.854973
H   82.055511   90.550652   51.112522
H   64.278671   49.210064   72.188232
H   74.539436   97.471535   20.311777
H   72.207039   94.229988   60.169228
H   48.801697   86.984360   91.517921
H   68.844933   54.686127   82.985008
H   80.589119   65.905891   42.749916
H   79.437454    5.020626    7.524698
H   24.201530   96.571411   47.425148
H   23.871857   53.038132   82.326225
H   84.306892   94.445076   19.710163
H   22.453876   61.948685   84.982307
H   62.847702   10.066978   46.744484
H   46.759132   10.096047   87.364426
H   74.844810   26.975945   79.972839
H   98.987862   23.042650   45.068188
H   99.599144   32.572926   51.156578
H   59.608170   12.858047   63.628174
H   93.039337   48.662582   25.564041
H   39.694908   66.571724   33.671387
H   98.592003   78.047028   50.921497
H    6.228662   12.635834   62.011452
H   30.843439   24.841295   65.895287
H   64.668793   99.105240   68.406471
H   41.525158   17.427353   80.777855
H   86.165680   62.012192   94.136848
H   33.242432    5.476926   57.574066
H   51.796238   31.334318   36.505043
H   83.529243   57.216942   79.972862
H   13.299994   16.137081    8.510114
H   23.830029   57.642464   26.449600
H   95.037598   98.202019   34.748138
H   72.433815   55.422962    8.781579
H   10.603330   78.225571   80.233086
H   21.438927   95.829613   65.826561
H   99.487701    6.270437   10.078714
H   38.336246   89.299347    9.393991
H   99.537628   74.525909   23.602644
H   21.644707   66.653122   64.838135
H   40.949093   84.182571   50.597935
H   59.116959   70.575928   17.959223
H   57.479603   95.812531   51.251278
H   33.590794   28.701191   97.172737
H   68.679977   12.405877   58.571289
H   56.423611   30.893950   81.982521
H   65.844772   46.802788    6.891141
H   98.213921   83.235741   42.436344
H   43.281483   36.665176   89.782532
H   72.747772   43.697960   47.642254
H   80.419945   42.007202    2.556251
H   96.824699   50.934891   84.011810
H   66.178757   60.846161   29.682219
H   97.881699    8.906530   75.214706
H   14.904159   90.027077   84.015984
H   69.236565   51.172287   24.717625
H   62.290901   84.497040   46.701962
H   31.420395   92.889053   65.512825
H   77.266090   18.178295   45.484097
H   76.502861   95.839279   39.298615
H    8.212468   71.929497   96.962181
H   79.876640   60.556206   33.500423
H   69.220924   85.378212   16.759481
H   89.467751   70.812843   50.115601
H   10.848579   67.601105   33.580791
H   42.119835   14.789092   31.084745
H   28.799713    1.963186   43.917881
H    0.263678   21.616915   94.470520
H   12.510555   60.729912   20.775349
H   89.581406   37.059647    9.140941
H   82.109985   47.703648   73.317131
H   54.288189   31.119469   98.226799
H   28.462141   33.555378   62.855625
H    7.192056   28.620829   63.854206
H   80.102180   27.609921   52.046711
H   94.020615   25.198484    4.914158
H   26.905096   43.387928   56.164696
H   30.379982   21.113361   23.786667
H   78.370987   64.963150   86.127747
H    0.105963   66.752151   98.373779
H   36.017109   64.827240   58.400089
H   87.435730    7.297134   48.403435
H   84.391296   33.147648   13.410460
H   71.915039   35.741531   81.292160
H   97.505623   52.582527   88.004868
H   11.474531   29.158920   59.874222
H   27.260712    2.137887   99.982430
H   61.401539   67.376175   47.510033
H   65.169891   59.666271    6.298379
H   33.484360   54.889267   99.244820
H    6.542119   31.004171   85.720909
H   80.586952   22.439590   59.365799
H   96.957970   40.789555   95.342064
H   78.794830   59.533882   89.303444
H   88.837219   65.611641   38.834694
H   19.526838   45.603851    0.849426
H   44.410942   51.717579   56.147820
H   53.440533   90.127052   65.487549
