100
TIME:    7.958, STEP:  7958
H   79.155266   92.234764   91.860245
H   80.696304   36.096615   79.883133
H   16.561663   46.434006   29.924858
H   82.812332    4.780102    3.956869
H   23.888514   10.626042   49.930725
H    4.608911   92.586601   66.854317
H   35.891529   98.698975   12.779133
H   94.403183   77.069603   77.517052
H   58.005043   21.163830   99.158737
H   57.398598   30.650087   19.307365
H   60.021255   86.450119   73.194031
H   52.108078   22.583782   26.469574
H   36.294563   80.298416   34.262989
H   61.048546   80.547096   62.848629
H   77.263863   59.185043   68.199738
H   81.548950   15.693352   72.457306
H   84.171944    8.331448   97.836487
H   71.243729    7.602769   23.662785
H   69.210602   12.199964   82.620026
H   78.113144   36.816448   58.150246
H   92.037727   63.974239   41.249432
H   25.321550   54.648346   41.581055
H   79.491432   29.901308    4.661769
H   79.645386   32.029022   16.043240
H   44.960030   55.051888   95.311562
H   10.084743   91.501633   41.999321
H   75.852310   11.671582   57.870007
H   61.067825   27.892233   29.820936
H   84.209679   71.104050   80.993492
H    6.138762   93.878647   16.026798
H   29.252268   35.665077   79.767448
H   68.230278   32.640377   62.552147
H   30.907381   86.237526   14.716443
H   14.346000   44.419441   36.492615
H   82.902962   57.137749    9.222317
H   64.413010    8.733449   94.407417
H   43.074627   13.095808   35.524502
H   35.073799   13.315310   84.015266
H    9.161111    8.026651   73.123100
H   13.639149   67.182861   64.154663
H   91.379044   29.240973   29.831511
H   29.557152   72.810455   86.230125
H   79.773773   11.225521   76.287514
H   71.197433   46.217064   58.825626
H   66.357246   17.911427   37.097931
H   75.400963   14.700919   15.491529
H    3.908920   57.621407    1.853172
H   56.673336   77.334808   60.973492
H   97.652718   73.367928   27.025585
H   92.820068   51.859287   27.108673
H   42.955158    1.349575   37.315948
H   91.886978   25.295141   51.643768
H   73.944038   68.151917   40.683449
H   92.404541   77.363724   82.981339
H    7.166773   56.006691   68.034607
H    3.507438    4.162680   21.717697
H    0.755578   59.921730   12.859563
H   33.486252   25.352644    8.574580
H   17.904701   75.022789    0.550109
H   33.872803   39.466846   37.266136
H   61.697430    8.488338   93.928200
H   16.472969   53.870132   35.279854
H   14.328753   64.243439   87.766510
H   89.501396   85.113647   11.077941
H   48.190399   25.251745   36.663223
H   12.475883   46.657524   16.723423
H   49.083496   23.491642   51.274761
H   30.652397   72.663750   46.641022
H   53.529037   77.975212   61.122269
H   91.647591   48.353100   84.964813
H   69.330009   53.940094   66.690987
H   17.945717   87.362694   39.364307
H   88.114304   24.677324   57.708996
H   55.019253   45.757450   30.315660
H   45.815582   40.032932    4.682647
H   13.787404   17.605556   60.455734
H   89.538780   37.015633   31.877100
H    5.861041   30.368679   53.931385
H   43.127502   30.143566    6.467581
H    9.257779   75.509331   35.332314
H   66.606117   11.611520   55.621704
H   38.458389   96.079391   21.238251
H   21.235445   40.204014   87.822617
H   97.647438   93.142212   36.576717
H   64.841782   51.099194   76.314201
H   68.140915    1.363639   94.410751
H   98.651604   24.741051    3.011423
H   84.015556   68.268005   13.065887
H   20.835598   51.083275   63.104622
H   62.745678   81.862564    8.697237
H   49.696857    3.141380    1.520242
H   67.110313   93.997391   85.158440
H   95.576752   66.299980   34.408936
H   16.376177   95.975548   63.394497
H   19.002571   36.900688   98.953705
H   51.219772   81.479553   56.407906
H   30.933363   24.372295   79.516685
H   22.916536   80.220818   19.124376
H   29.612114   71.166771   78.471748
H   33.513157   74.416855   31.120808
