100
TIME:    6.043, STEP:  6043
H    8.659229   67.848289   93.613480
H   33.581337   32.325214   59.137203
H   83.636978    8.661872   52.409420
H   82.490906   83.678192    8.924851
H   41.044449   57.130524    1.855547
H   34.310230   94.661263   77.205315
H   36.256748   69.391014   63.023548
H   44.918411   11.398797   53.346378
H    5.079460    5.283540   19.701223
H    9.704779    3.152135   44.325626
H   38.149887    9.395765   57.656425
H   25.196136   26.594776   62.781654
H   58.450516   96.157692   24.558769
H   55.867455   86.449654   17.114613
H   54.003166   30.242065   60.292500
H   58.548080   83.186073   31.419621
H   38.165077   81.667992   23.506475
H   30.293669    0.786808   90.043983
H   39.388447   31.864702   81.730515
H   29.708282   77.481728   27.768122
H    5.676521   54.618298   93.226448
H   41.728638   52.106155    4.661003
H    5.059919   45.474892   59.453247
H   57.576900    9.120089   58.268574
H   13.452313    6.918945   81.168800
H   18.998919   48.014015   22.161243
H   40.984306   91.276382   19.868643
H   22.651276   38.506508   66.524796
H   42.570351   97.360535   71.516418
H   32.707798   41.275658   63.789719
H   53.886856   63.942028   31.276009
H   47.315891   85.550186   39.833260
H   96.017448   26.347364   42.198120
H   33.433556   19.917717   17.169230
H   30.559441    2.114695   92.705292
H   97.945633   58.742516    0.427068
H   59.400551   83.227173   84.630165
H   14.225077   48.365116   48.878521
H   89.994843   49.749443   58.700615
H   94.010544   46.458172   13.484690
H   22.255215   63.530312   84.716164
H   90.942764   65.300766   88.465355
H   63.292736   99.738022   37.966362
H   93.478302   14.074423   71.587730
H   32.470570   93.466934   73.226059
H    0.121530   78.177811    7.711550
H   88.945602   53.477127   83.472237
H   56.562145   57.610916   42.484501
H   41.671913   31.968529    3.415234
H   52.617756   22.709677   61.007454
H   43.086651   86.230606   17.129910
H   98.811699    2.993822   77.350716
H   34.222317   57.048096   51.901722
H   36.749268    8.603557   98.478172
H   59.642387   88.184540   51.747753
H    1.122308    6.177073   86.908813
H   79.351357   15.178786   30.727135
H   76.081451    6.200506   57.901840
H   66.874283   94.100166   47.560738
H   60.241829   92.272675   91.733299
H   40.898090   97.545181   43.235638
H   84.440041   71.694687   21.926880
H   84.320015   94.919228   19.083801
H   58.002678   74.681900   63.075619
H   72.181290   78.200333   58.327396
H   30.114887   41.857567    3.492759
H    2.726873   57.282551   58.818436
H   62.934410   63.142979   55.092945
H   58.086018   15.574883   81.226532
H   52.813744   52.088455   89.008301
H   30.140896   84.235107   89.658363
H   75.693558   50.969620   99.061569
H   12.976196   19.395317    6.803528
H   97.181435   66.956322   44.098564
H   53.527287   37.256229   59.498550
H   68.521141   94.872124   89.312286
H   15.619826    2.778552   97.921440
H   15.891459   55.584381   48.172913
H   51.295574   35.768528   85.103981
H    3.171053   79.828621    0.311420
H   29.124376   91.799271   41.164570
H   94.756561   83.660507   81.443871
H    0.106979    8.179151    5.447668
H   65.897163   29.271996   11.482934
H   58.085365   70.892967   61.951309
H   12.209270   31.022808   61.427475
H   70.753029   63.977455   11.697073
H   53.217064   21.506334   32.921272
H   81.092148   57.707497   78.766853
H   32.056019   60.652500   40.239677
H   71.327110   99.736984   61.078899
H   25.419703   49.970459   48.668076
H   72.821457    8.838292   86.319046
H   31.300323   79.794991   34.269150
H   52.112358    8.433826   54.947514
H   93.048584   57.099945   55.320160
H   82.937614   14.475892   89.650650
H   26.612940   85.466003   57.566498
H   20.838287   62.899296   38.872856
H   14.565845   23.562080   15.598744
