100
TIME:    9.780, STEP:  9780
H   55.940338   25.149036   90.192154
H   30.375790   34.828190   94.764885
H   47.880070   77.516472    8.537331
H   83.118149   29.715357    4.086710
H    7.562075   56.667114    0.530788
H   76.360840   90.612694   47.292282
H   40.400097   21.730288   55.261913
H   51.197586   34.696064   10.226004
H   13.216805   45.984879   84.471581
H    7.630484   56.811314   90.647285
H   90.543182   59.760590   97.688011
H   82.566078   13.911194   96.778450
H   20.111649   70.017387   53.197777
H   70.834488   74.931190    1.501430
H   99.393867   96.435028   80.579369
H    8.289711   56.334396   21.215385
H   37.657661   28.841858   63.700333
H   10.206710   18.943901   60.501823
H   97.595947   88.635742   78.616013
H   29.025578   98.124237   82.200493
H   83.917160   82.588326   91.796539
H   99.998474   57.067078   86.420959
H   55.165108   15.089838   52.533615
H   10.354485   53.825409   80.726883
H   79.795883   10.556976    8.763161
H    1.491087   37.789108   70.541054
H   18.738274   35.933643   94.014328
H    7.334103   12.937047   90.046654
H   23.827969   36.409794   94.866837
H   76.001884   48.784592   60.870461
H    0.958975   99.047806   35.616623
H   83.272568   82.300018   93.880516
H   59.248672   52.930847   78.856590
H   91.329910   77.444084   59.735390
H   37.558693   19.186714   20.075712
H   22.795832   51.446346   88.680305
H   17.828590   46.370857   79.091141
H   59.764507   79.977028   12.589210
H   32.254993   68.327477   96.558174
H   42.026669   96.611450    7.504284
H   66.857742   91.758850   72.757042
H   76.008537   79.958572   79.239983
H   95.453827   22.156948    7.892923
H   54.866009   76.806190   36.969494
H    8.298071   46.012363   93.005920
H   51.888046   49.449352   22.893682
H   18.153988   56.711742   19.349966
H   56.784542   96.100830   73.708160
H   50.907379   22.470966   54.347275
H   31.065107   79.599113   99.714760
H   45.738575   25.666290   52.057083
H   80.436844   56.228378   32.040169
H   11.729460   78.716492   34.865067
H   50.206390   47.636253   63.380562
H   62.096779   15.677012   83.520050
H    5.776737    2.246113   59.692505
H   16.262184    7.348517   86.146767
H   97.817337   53.286903   61.644920
H   61.608562   52.011856   60.675564
H   13.640469   79.511780   85.444130
H   76.634216   23.756292   51.876949
H   51.806602   36.911209   52.842590
H   38.040569   39.938881   62.838272
H   14.614750   95.038788   61.615768
H   20.507179   79.730812    6.337111
H    0.549321   56.080803   24.454782
H    2.900310   86.481873   39.241161
H    4.794200   76.865852   33.743164
H   44.336678   47.057907   46.848988
H   28.651688   39.867855   81.100403
H   11.464632   29.965305   44.838997
H   67.906929   26.866600   72.914886
H   69.318085   34.551411   10.988552
H   14.915569   30.444420   22.059027
H   33.582436   42.715778   42.827702
H   56.865669   34.378796   37.859428
H   55.015572   79.316696   64.196251
H   91.454216   11.239189   54.564072
H   30.500006   24.791775   26.802759
H   19.905140   76.256111   78.365547
H    2.275257   30.460947   64.520714
H   75.178459    7.903160   68.808052
H   36.479805   70.674477   61.341740
H   22.997856   49.055252   70.164757
H   76.127151   37.122040   99.693085
H   26.203701   68.291710   20.936268
H   20.339006   92.266167   89.891243
H   13.317156   22.472116   94.178986
H   58.647709   49.637230   48.203011
H    1.654978    6.899094   73.826477
H   24.261221    1.522614   39.997826
H    1.919862   31.028505   19.874880
H   12.370290   20.963034   75.306999
H   89.553200    6.293275   90.717690
H   87.499680   73.697365   40.818794
H    1.709475    9.531096   62.299194
H   86.312157   28.931889   74.731186
H   19.399645   70.373596   82.541222
H   42.816277   79.034599   25.859951
H   46.684135   27.664871   55.602238
