100
TIME:    6.927, STEP:  6927
H   48.877274   86.781868   92.804153
H    9.169819   80.228294   14.874377
H   98.838821   72.260185   42.029812
H   82.639282   47.258514   60.471798
H   33.126541   27.986937   77.886154
H   20.598896   93.703560   64.751144
H   89.926208   29.081760   32.153576
H   75.437752   87.875580   72.180351
H   83.348991   20.290710   64.058372
H   85.558540   15.846432   78.937813
H   55.922363   44.965336   72.505135
H   91.455719   70.905380   99.858177
H    2.040482   42.699009   36.719902
H   12.097780   83.724922   84.387810
H   64.741341   51.279045   17.783741
H   23.004318    5.868225   58.039551
H   67.078957   40.137623    3.980492
H   49.198177   57.771194   59.398514
H   53.153736   68.951172   28.303249
H    5.893860   58.707264   87.955009
H   53.218719   66.613434   69.229927
H   26.478577   53.279678   29.380219
H   93.256767   38.285378   34.161804
H   75.440346   19.695284   92.614075
H   81.835396   36.814522   87.697365
H   14.945873   21.892643   39.021362
H   64.757042   54.531235   37.410786
H   48.061211   79.768654   95.741470
H   61.791847   77.563728   29.728395
H   66.605072   19.396873   34.064751
H   88.676353   43.212936   61.336815
H    3.132362   61.122822   57.996971
H   58.286617   61.669991   21.835821
H   70.783958   38.904434   79.928146
H    8.561914   35.198921   46.496429
H   74.790016   27.981419   97.648170
H   44.188271   50.854126   54.285801
H   77.685936   32.185337   11.261336
H   52.682858   30.487745   73.034637
H   10.747822   63.701740   83.036789
H   61.840149   93.866447    5.542440
H   16.444290   68.767380   33.596027
H   70.901031    5.040953    1.819307
H   37.031025   28.912069   58.020233
H   55.789093   58.586025   48.872501
H   88.710075   95.038773   11.302935
H   95.851852    1.551189   91.956673
H   56.610409   66.715836   97.181458
H   67.510567   58.754856   68.155136
H   71.173096   36.166805   99.195595
H   43.025951    0.885986   26.447277
H   41.779621   20.964783   19.322029
H   52.560299   62.173828    0.558764
H   16.280060   94.181030   37.484940
H   89.256546   65.655067   59.267742
H    2.223329    5.247191   56.815369
H   35.393414   89.670586   14.802916
H   10.257224   22.717939   35.132797
H   36.594574   31.455524   79.698418
H    1.909237   60.221500   66.590233
H   96.660667   56.432655   74.311874
H   53.065163   63.466537   81.929520
H   44.334820   34.597450   58.465271
H   18.703953   79.497391   39.072353
H    7.266449    7.595885   40.650669
H   75.810944   97.911766   55.762146
H   31.802801   87.846619    1.497005
H    1.870359   13.699702   97.353256
H    2.141511   52.056290   25.783039
H   70.722618   96.549248   87.146851
H    2.068082   24.088684   79.056190
H    2.828146   21.618416   63.796135
H   55.338013   75.670761   84.140442
H   77.717140   11.010029   91.575226
H   96.150139   38.517429   26.511993
H   89.415245   51.529301   29.830564
H   95.901947   26.251087   13.592802
H   57.423382   97.780296   96.990959
H   93.688759   33.171940   94.964272
H   59.818314   31.673691   24.153831
H   46.423721    0.944873   94.000076
H   61.092224   89.393372    7.491950
H   56.024559   22.961950   89.635559
H   26.716537    4.917252   30.742733
H   15.041990   15.596583   76.257454
H   91.864487   63.496918   22.815277
H   29.793459   99.703133   53.849480
H   67.434227   50.768940   23.755653
H   99.436874    8.488331   71.536873
H   53.899502   24.280033   71.838791
H    7.504128   47.469185   79.747360
H   90.826752   16.456081   65.509407
H   29.487415   35.363956   54.680122
H   16.734734   33.425865   93.876022
H   36.829582   29.251144   75.261597
H   66.063385   22.191957    9.660440
H   12.769882   65.206039   38.811478
H   24.906610   29.207706   39.822021
H   78.726830   66.714668   64.829475
H   69.472603    0.877597   30.440495
