200
TIME:    0.290, STEP:   290
H   11.007571   62.309055   16.194546
H   28.409937   33.608109   91.926979
H   17.089699   71.326645   47.810966
H   19.527935   77.558174   43.192207
H   14.679280   84.996490   52.939621
H   87.992004   51.457916   64.069328
H    4.083632   55.268654   50.619152
H    4.009099   91.045502   23.297543
H   89.459038   86.756638   46.499668
H    9.101101   74.198509   94.100258
H   13.936468   95.662300   94.541718
H   30.984558   43.357414   15.124698
H   12.401362   88.667274   59.242424
H    2.040287   53.417889   44.675167
H   17.207834   72.329491   42.855568
H   27.842983   23.906239   53.244400
H   86.559555   10.060246   13.004471
H   35.374855   85.570679   42.630207
H   66.689011   27.891747   43.219879
H   90.215324   79.018028   35.532475
H   58.685127   79.254211   23.549747
H   88.915901   50.725533   68.647888
H   93.507942   62.177917   47.936485
H    9.667287   88.515038   91.429298
H    5.419718   14.714933   43.626217
H   18.619703   64.555145    5.305166
H   99.863930   59.800022   51.092209
H   95.657745   72.192039    0.862834
H   13.174497   55.009956   38.045586
H   90.789978   22.103781   96.896317
H   13.296213   53.538181   16.255943
H   31.016819   64.678207   94.834129
H   25.915184   10.061426   73.789886
H   94.771736   63.632469   39.164246
H   45.588993   87.734970   33.838764
H   31.427994   48.781929   80.049828
H   87.699554   73.349823   86.330299
H   30.441708   46.048687   12.919346
H   51.219742   44.610188   45.543045
H   89.603241   39.482876   61.743256
H   80.519188    2.888141    3.183889
H   15.828020   42.058418   38.348557
H   75.801590   86.633324   52.184895
H   37.169876   65.662331   20.536570
H   30.485323   77.820648   46.168266
H   40.356171   12.537256   43.231663
H   80.916382   23.762573   97.275352
H   88.898552   65.549843   45.850174
H   89.014038   26.854733   61.202381
H   60.328114   18.027143    3.597058
H   77.018814   69.863258   25.887188
H   19.226763   36.558575   64.616707
H   53.525070   92.991341    8.582353
H   21.662441   83.238846   82.443596
H   75.082504   75.272949   89.156303
H    4.664690   71.118294   80.285492
H    5.287790   16.934669   49.118244
H   67.954941   59.741734    4.401002
H   27.126112   75.443344    8.335792
H   41.946865   95.708412   66.069931
H   50.257584   14.400892   40.775665
H   90.835052   16.543329   49.449368
H   72.824799   26.242254   83.198059
H   25.337490   65.223671    4.783852
H   72.152130   76.824463   19.974184
H   36.778374   18.503664   33.762039
H   84.307472   22.107319   86.868141
H   97.061424   91.563606   88.261467
H   18.300993    6.528926   61.346947
H   44.949146   42.501453   50.979923
H   58.443230   77.456924   74.618774
H   30.735260   22.507574   44.414829
H   79.080704   26.527508   97.821487
H    9.494287    7.865674   62.028126
H   79.753860    1.680964   65.261719
H   54.577568   17.311352   62.550743
H   95.216248   31.811579   71.438332
H   24.703300    6.880411   46.257790
H   11.910694   31.921114   33.831051
H   67.522690   90.388092   91.890411
H   45.490215   29.256998    0.391449
H   28.834965   67.691124   86.311516
H   10.804639   14.214759   88.816780
H   23.043570   63.494576   95.481171
H   37.127708   99.852570   56.365227
H   26.075886   84.024902   26.741982
H   38.096161    2.888298    1.885949
H   74.915688   16.683439   13.328080
H   67.217239   72.175026   77.348289
H   23.193695   88.288292   54.315426
H   39.146835   35.324429   80.532089
H   83.707146   88.974152   99.458847
H   49.634914   16.298191   94.305801
H   57.785778   92.637306   70.477577
H   26.391857   56.249855   70.022224
H   67.201454   28.827194   26.710779
H   79.983849   12.549780    0.482614
H    5.520163   29.215668   49.066975
H   35.884941   69.277161   53.058441
H   68.073799   98.739914   27.262613
H   12.097035   81.808838   71.294228
H   92.431587   77.413025   65.588799
H   24.215849   35.342712   31.201599
H   24.278494   68.031799   92.147919
H   25.272459   26.815651   26.708591
H   89.402550   24.324896   41.549881
H   68.026848   30.717623   56.026535
H   64.456703   36.194122   16.808222
H   74.067238   39.458511    1.550344
H    5.972911   27.363253    5.781977
H   47.852386   95.632286    0.831029
H   88.001633   64.602722   91.080696
H   56.225624   80.854874   92.847801
H   63.054802   18.319408   73.664612
H   62.181709   84.050629   25.019520
H   11.997964    4.334566   81.190018
H   30.519199    9.146760   84.762985
H   40.517437   29.457531   32.979057
H   20.761202   59.590824   81.068497
H   72.102135   47.672787   51.207954
H   41.076424   22.091694   85.881416
H   16.131695   26.295567   49.658920
H   33.441841   19.713802   25.512400
H    3.340635   65.519432   15.675655
H   75.420250    7.714126   91.159462
H   49.554165   63.720570   24.565981
H   94.143806   49.423386   69.123764
H   74.334999   87.962120   35.424862
H   93.083031   50.673786   83.750816
H   70.168671   23.912357   67.353432
H   50.627312   83.400421    5.322124
H   79.780830   86.547287   10.506108
H   92.274483   85.027367   97.747086
H   98.468857   14.284933   50.322594
H    6.896124    0.466055   54.119293
H   61.026367    1.562680   82.944984
H   68.975494   86.691933   57.827751
H   91.644829   62.659786   82.408348
H   47.620148   45.032867   71.538261
H   43.475029    6.691869   94.068176
H   53.093014   61.598289   16.525055
H   54.936508   42.530029   47.412472
H   53.398178   57.681286   97.697769
H   55.421974   24.717716   78.952980
H   42.652172   68.108826   50.703526
H   47.772141   62.837280   27.451492
H   45.913811   96.558830   46.923885
H   41.287163   71.557503   68.538109
H   66.521942   62.704758   97.447403
H   11.055809   89.220680   88.125824
H   74.457832   62.159100   50.966732
H   35.892128    5.726230   46.585442
H   78.498520   29.969006    1.709277
H   11.231636    2.290421   74.716942
H   15.595226   55.199497   61.657867
H   64.986397   43.652882   55.599236
H   59.834637   62.382954   81.347824
H   46.756935   35.857666   10.895531
H   10.093414    1.545933    0.750731
H   63.119106   54.903717   80.159866
H   54.447090   82.378059   82.086464
H   41.256542   22.797188   35.110817
H   67.371605   32.390038   37.211262
H   13.109978   21.648510   69.059509
H   58.475441   23.784948   10.315830
H   12.775149   62.848377   62.028500
H   74.038857   96.758247   52.751751
H   23.675892   33.207458   50.080280
H   94.752357   28.007608   36.738869
H   28.754715   10.082393   89.840302
H   78.409790    6.228435   35.971878
H   44.435646   63.590073   57.611656
H   38.639015   75.305801   89.017166
H   70.609398   73.345703   75.402115
H   69.113953   94.660416   96.880424
H    2.451100   47.930931   23.334715
H   34.904095   54.483078   88.999565
H    2.173139    9.248543   65.519547
H   74.322884   20.217226   68.550049
H   83.922066   54.991447   87.090340
H   80.504959   86.981178   40.556770
H   20.236177   30.167080   71.441498
H   63.333302   90.113876    7.059634
H   52.569633   25.312941   79.029732
H   86.169556   86.165726   78.190842
H    0.307175   36.645676   84.204445
H   33.093018    3.668101    0.372973
H   88.018936   69.342476   27.276062
H    5.170414   61.396374   67.114853
H   50.522804   58.001324   66.334732
H   50.208843   29.370102   78.944405
H   47.243027   86.287994   23.987524
H    5.211096   18.713543   58.951576
H   34.230000   65.526596   34.320934
H   83.178757   52.022022   21.652729
H   75.450211   10.506136   28.881348
H    9.793635   86.922783    5.154401
H   27.456377   96.412453   45.556610
H   11.246549   11.751799   75.780891
H    7.486243   33.298824   97.054138
