100
TIME:    4.486, STEP:  4486
H   13.952587   10.632254   95.038956
H   76.583199   47.954407   60.963745
H   56.864952   96.645317   70.686806
H   82.229568   47.827568   94.269661
H   54.990356   32.330185   44.070114
H   58.460171   96.348076   23.009512
H   17.859470   64.255264   41.264050
H   67.295540   76.697479   96.303749
H   43.353493   54.982803   17.708887
H   52.249474   80.795677   83.356812
H   82.978241   46.746387    7.635620
H   84.622490   48.550560   73.610786
H   57.806168   90.312416   79.270508
H   32.960075   91.248756   98.625717
H   35.068092   69.319824   35.134129
H   21.152107   19.367241   60.664001
H   63.369698   78.684280   81.766624
H   96.999153   76.543388   44.018505
H   15.139343   66.548523   99.703522
H   71.655083   10.550859   21.760324
H   98.071129    9.621319   35.486320
H   92.457535   50.039215   37.253922
H   25.849464   58.137871    3.999644
H    2.243479   90.484192   73.904282
H   69.139069   30.397354   69.669960
H   26.096601   94.037262   68.574440
H   75.246696   56.000927   88.976845
H   54.025532   65.831024   15.053866
H    8.714654   56.096889   45.116066
H   73.006546   79.811028   40.012337
H   92.607063   24.324108   54.460899
H   49.005932   28.568741   83.972572
H   86.345192   40.264793    1.931263
H   67.645660   62.607605   82.763542
H   69.261337   19.813072   97.895523
H   62.597919   36.791767    5.324376
H   10.065123   40.249496   61.944569
H   78.576668   76.857399   39.005733
H   55.718777   83.675774    9.585745
H   40.662346   92.218773   90.983459
H   28.664967   10.110593   48.033916
H   28.445023   13.191482   13.557600
H   49.881382   90.401154   25.502665
H   92.897995   87.949982   19.352400
H   67.527428   54.895073   39.990131
H   20.212139   48.480396    1.383911
H   76.781540   68.801720   68.528496
H   56.478992   41.574310   46.146172
H   96.162338   60.918102   65.527924
H   19.962475   99.011635   69.906593
H   43.202366   36.549507    0.716351
H   23.143373   47.472363   79.564697
H    1.924467   48.020081   42.329494
H   72.804832   34.011803   29.770420
H   83.612732   51.730808   38.502705
H   99.179214    7.814886   39.912781
H   80.644363   60.105095   82.643318
H   92.018936   53.240440   98.005234
H   44.077454   28.313938   67.091560
H   62.987637   72.597687   36.018074
H   42.681335   69.950829   64.630775
H   39.697716   86.187027   92.376251
H   78.615547    1.166099   25.851982
H   51.085762   66.200317    5.342747
H   10.378671    2.554195   13.330646
H   25.762886   19.260323   11.430768
H   27.648672    3.456366   83.645920
H   70.487022   74.096207   80.659340
H   80.484207   27.450974   78.878967
H   21.273066   73.776367   92.286896
H   79.581383   90.172180    8.334229
H    4.076429    2.643216   85.065971
H   14.495726   96.411659   46.728737
H   31.455074   65.497978   36.610619
H   78.458626   35.034863   41.467617
H   31.709681   95.082970   94.078964
H   74.255295   37.729664   70.385994
H   42.740765   57.393032   62.186493
H   76.632027   40.341930   67.736931
H   79.523224   64.638268   34.448235
H   98.656540   75.691391   48.106304
H   77.915565   73.524551   11.660814
H    1.622906   82.141052   57.168705
H   58.778534   96.035469   53.689415
H   33.898941   68.284096   12.884934
H   48.048115   73.834236   53.304703
H   66.764519   77.184174   37.453400
H   28.164225   46.134132   49.090599
H   48.781357   44.398521   91.501106
H   69.716721   24.709099   84.580658
H    7.608320   15.663330   28.197916
H   10.215869   32.870682   19.005411
H   73.014839   62.120819   65.913803
H   80.816940   85.342087   29.286951
H   79.030098   47.901634   19.170193
H   64.446793   18.584312   35.741356
H    6.525075   25.122784   79.194839
H   23.332357   54.433289   84.251015
H   95.010559   56.187679   69.288261
H   17.854326   63.512302   65.590530
