100
TIME:    7.977, STEP:  7977
H   77.870354   90.492363   91.842850
H   80.171555   37.126255   81.081070
H   16.888254   47.800964   29.701839
H   82.815521    3.997253    2.915387
H   23.718260   12.148976   49.415543
H    4.314246   92.566017   68.735878
H   34.895809   99.981857   14.264957
H   92.909821   78.713432   75.772621
H   57.537987   19.336990   97.962830
H   56.879646   30.922899   20.051365
H   58.253922   87.214630   71.363785
H   51.382851   23.536160   25.117184
H   35.083000   79.148315   32.374905
H   60.107765   80.488533   64.294563
H   77.494637   57.487869   67.285919
H   80.785019   14.031511   70.880157
H   82.644081    9.588129   99.566132
H   71.649902    6.678242   23.004166
H   69.506607   12.997090   83.621109
H   77.601151   36.413029   59.443855
H   90.910240   62.082676   40.733814
H   27.143099   54.673569   39.963028
H   79.237755   29.746855    4.118138
H   77.880081   32.256317   14.632106
H   44.280464   53.545044   95.451881
H    9.995159   90.941513   40.211258
H   74.213989   10.881740   58.247044
H   59.464729   28.779089   30.448969
H   84.622810   72.827896   80.095329
H    6.867287   93.408401   17.537193
H   30.000036   37.368774   78.264229
H   69.429955   32.115482   60.793221
H   32.245724   84.847374   16.428114
H   15.148816   42.678200   35.692154
H   82.430107   55.699181   10.378325
H   66.064667   10.221665   94.347694
H   44.896900   12.399935   37.021633
H   34.288559   12.967590   85.356133
H    8.359092    7.612722   71.281837
H   11.849564   65.404221   65.649475
H   90.080505   29.892851   30.279142
H   27.955940   72.884964   87.200188
H   79.937286   11.339495   77.659981
H   69.984131   46.535973   60.683270
H   64.709068   17.161846   38.723785
H   75.155693   15.063243   15.568720
H    4.057448   58.654671    2.035647
H   56.674496   77.530502   62.149105
H   98.208199   71.794258   26.267670
H   93.218994   52.148479   25.780201
H   42.953854   99.515221   37.516281
H   92.810364   23.532084   50.396545
H   74.338036   68.262085   39.580025
H   91.964447   77.053802   83.819778
H    5.653932   57.671829   68.196091
H    3.531103    4.142694   21.070892
H    1.960065   59.373497   14.666652
H   32.071457   23.558275    8.085164
H   19.403210   75.825569   99.091507
H   32.619057   40.927303   36.725731
H   62.895947    7.604780   92.446724
H   15.798622   53.693283   34.420105
H   15.618667   62.946930   86.463623
H   90.806023   85.217148   10.562070
H   48.944618   23.734247   38.432587
H   11.308750   45.712975   17.846851
H   47.559113   24.148521   52.192059
H   29.339943   73.750359   47.549332
H   54.476051   76.609993   59.930565
H   92.033470   49.307362   84.924515
H   68.726692   52.647354   66.463112
H   16.381107   86.731834   40.756924
H   86.875488   23.737486   57.221790
H   54.601048   44.555019   29.186796
H   46.730850   40.060909    6.123209
H   14.236594   18.823280   59.177345
H   91.264366   35.371078   32.214104
H    6.753605   29.126385   54.980740
H   44.038567   30.087757    6.679619
H    8.326022   74.474327   33.695442
H   66.978081   11.808084   56.757309
H   39.884056   96.202606   19.648708
H   22.437223   40.521763   89.631989
H   98.954674   94.768066   34.841419
H   63.916656   49.910679   74.472359
H   67.703720    2.061541   95.730164
H   99.920570   23.359596    3.917423
H   84.321129   66.747681   12.868889
H   21.229958   50.025368   62.949226
H   61.065754   81.080948    9.376404
H   50.474415    4.167280    1.921501
H   68.516121   95.426392   85.520546
H   96.794693   66.869957   35.878235
H   18.212439   97.128258   64.675636
H   18.674023   35.198730   99.390320
H   52.789093   80.729248   55.426537
H   29.425287   25.462601   78.423988
H   22.879862   81.161018   18.742918
H   28.706993   71.248817   76.880394
H   34.693264   73.929214   29.290417
