100
TIME:    7.990, STEP:  7990
H   76.991203   89.300194   91.830948
H   79.812515   37.830746   81.900711
H   17.111712   48.736252   29.549248
H   82.817703    3.461620    2.202795
H   23.601770   13.190984   49.063049
H    4.112634   92.551933   70.023262
H   34.214527    0.859705   15.281574
H   91.888046   79.838158   74.579063
H   57.218422   18.087048   97.144577
H   56.524574   31.109560   20.560417
H   57.044693   87.737717   70.111511
H   50.886642   24.187786   24.191864
H   34.254036   78.361404   31.083021
H   59.464073   80.448463   65.283806
H   77.652534   56.326645   66.660675
H   80.262329   12.894463   69.801056
H   81.598701   10.447964    0.749574
H   71.927811    6.045671   22.553532
H   69.709137   13.542493   84.306061
H   77.250839   36.137005   60.328957
H   90.138802   60.788448   40.381023
H   28.389421   54.690826   38.855957
H   79.064186   29.641176    3.746181
H   76.672241   32.411835   13.666593
H   43.815498   52.514046   95.547890
H    9.933865   90.558273   38.987846
H   73.093033   10.341321   58.505016
H   58.367874   29.385885   30.878675
H   84.905479   74.007370   79.480797
H    7.365752   93.086655   18.570621
H   30.511667   38.534462   77.235710
H   70.250786   31.756344   59.589745
H   33.161472   83.896217   17.599257
H   15.698112   41.486824   35.144470
H   82.106575   54.714897   11.169277
H   67.194748   11.239919   94.306831
H   46.143719   11.923811   38.045986
H   33.751289   12.729677   86.273567
H    7.810338    7.329508   70.022026
H   10.625111   64.187256   66.672241
H   89.192032   30.338873   30.585417
H   26.860374   72.935944   87.863914
H   80.049164   11.417477   78.599037
H   69.153976   46.754173   61.954288
H   63.581406   16.648975   39.836212
H   74.987877   15.311149   15.621534
H    4.159072   59.361641    2.160499
H   56.675289   77.664398   62.953472
H   98.588264   70.717537   25.749096
H   93.491943   52.346348   24.871246
H   42.952961   98.260170   37.653351
H   93.442154   22.325781   49.543182
H   74.607613   68.337463   38.825050
H   91.663330   76.841751   84.393448
H    4.618830   58.811134   68.306580
H    3.547294    4.129019   20.628342
H    2.784188   58.998390   15.903081
H   31.103487   22.330549    7.750300
H   20.428505   76.374840   98.093536
H   31.761230   41.926563   36.355980
H   63.715984    7.000240   91.433083
H   15.337227   53.572281   33.831856
H   16.501240   62.059845   85.572174
H   91.698662   85.287964   10.209105
H   49.460663   22.695959   39.643204
H   10.510185   45.066704   18.615513
H   46.516113   24.597965   52.819683
H   28.441948   74.493828   48.170807
H   55.124008   75.675896   59.115189
H   92.297493   49.960278   84.896942
H   68.313896   51.762848   66.307198
H   15.310601   86.300194   41.709766
H   86.027878   23.094439   56.888439
H   54.314907   43.732304   28.414415
H   47.357086   40.080051    7.108856
H   14.543935   19.656460   58.302658
H   92.445030   34.245857   32.444702
H    7.364306   28.276394   55.698719
H   44.661926   30.049572    6.824697
H    7.688510   73.766167   32.575478
H   67.232582   11.942575   57.534302
H   40.859512   96.286911   18.561127
H   23.259493   40.739170   90.869980
H   99.849098   95.880493   33.654110
H   63.283676   49.097485   73.212151
H   67.404587    2.539054   96.632919
H    0.788816   22.414391    4.537323
H   84.530205   65.707458   12.734100
H   21.499783   49.301537   62.842903
H   59.916332   80.546158    9.841097
H   51.006428    4.869216    2.196049
H   69.477989   96.404129   85.768303
H   97.628021   67.259941   36.883545
H   19.468828   97.916954   65.552208
H   18.449226   34.034233   99.689056
H   53.862839   80.215881   54.755074
H   28.393446   26.208599   77.676353
H   22.854769   81.804314   18.481920
H   28.087700   71.304955   75.791573
H   35.500706   73.595566   28.038044
