100
TIME:    8.558, STEP:  8558
H   38.579094   37.211571   91.310928
H   64.125259   68.610916   17.713882
H   26.875078   89.601120   22.882164
H   82.913040   80.060417   71.070747
H   18.512079   58.718693   33.661804
H   95.305420   91.936577   26.273071
H    4.446092   39.215454   59.699909
H   47.244370   28.977739   22.426315
H   43.255898   63.475861   61.392918
H   41.010658   39.265202   42.801033
H    4.210709   10.592227   15.399984
H   29.206161   52.658855   83.761543
H   98.034286   43.981972   74.636154
H   31.339735   78.697731    8.506924
H   84.551460    5.590073   39.346230
H   57.424805   63.214989   22.652187
H   35.923653   48.015202   52.456856
H   84.070267   78.406761    2.864889
H   78.558136   37.372387   14.231235
H   61.945515   24.075460   99.001076
H   56.432869    4.240694   24.965788
H   82.844139   55.444855   90.485550
H   71.480568   25.023836   87.495316
H   23.895964   39.206757   71.483383
H   23.500977    7.467354   99.742714
H    7.255360   73.813644   85.536377
H   24.112677   86.731155   69.774216
H   10.442892   55.898212   49.655586
H   97.255943   25.540552   52.630455
H   29.144165   79.028793   63.725006
H   52.868031   89.468208   32.297356
H    6.114701   16.064754    7.007113
H   73.171646   42.337990   68.769180
H   39.698471   89.433136   11.216787
H   67.970711   11.709282   45.728756
H   16.569880   55.730911   92.521431
H    0.622980   91.121834   82.802330
H   10.275000    2.334660   26.355667
H   83.836235   94.954308   14.978630
H   57.124779   11.011695   11.359803
H   50.372574   49.826607   43.967251
H   78.992218   75.163361   16.862289
H   84.937347   14.824688   19.626934
H   32.886814   56.291824   17.490879
H   14.313034   94.241539   88.442070
H   67.655602   26.142723   17.929121
H    8.599595   90.250801    7.615192
H   56.709957   83.514618   98.098122
H   15.190506   23.676819    3.090805
H    5.416243   60.991673   85.157402
H   42.913960   43.424110   43.642242
H   21.047705   69.620819   12.256743
H   86.386055   71.630920    5.836760
H   78.506836   67.576736    9.457583
H   59.394295    8.586675   73.134094
H    4.254738    3.531538    1.292277
H   38.791595   42.609108   69.924446
H   88.809753   68.689705   93.119774
H   65.227623    0.373778   54.488953
H   94.279701   85.584396   20.200706
H   99.545334   80.584106   47.146404
H   95.177757   48.285416    8.131573
H   55.064152   23.300570   46.622711
H   30.701942   88.382080   94.788101
H   72.006302   77.331268   92.537857
H   75.617500   16.829643   52.200108
H    0.943656   44.233852   80.242050
H   89.206039    6.978095   75.324493
H   83.431763   34.863029   23.489517
H    3.833349   78.489883   83.692230
H   50.274586   13.113727   59.494942
H   68.535889   67.440819   83.343674
H   48.993820   94.997978   42.323559
H   41.812771    7.784496   94.666847
H   74.718781   40.916416   50.174915
H   27.973322   56.061424   20.084879
H   44.032059   85.083740   42.520081
H   34.047306   91.138329   87.072083
H   71.899208   28.381176   13.163519
H   79.833214   42.825005   83.641930
H   78.352333   17.818796   91.482910
H   83.481430   99.970383   71.040932
H   59.187981   50.238194   44.964199
H   38.926018   44.486061   81.776054
H   35.627304   13.567076   18.151295
H   54.331554   23.402672   36.076813
H   38.724323   81.115837   31.621742
H   93.665215   20.254139    6.844773
H   33.288822   17.676664   58.197395
H    9.696273   57.178680   30.145365
H   74.251305   35.537762   14.191428
H   11.504236   39.122437   96.593376
H   34.037693   84.299248   80.807861
H   74.362534   32.376820    3.851512
H    8.627357   83.156174   12.740484
H    0.777275   57.785706   25.417305
H   83.308739   58.804771   45.010460
H   21.758394    9.910481    7.078325
H    1.029815   73.757713   28.215191
H   70.780533   59.019169   73.321396
