200
TIME:    0.881, STEP:   881
H   29.167612   60.347652   26.300280
H   33.677185   42.236027   15.919682
H    4.702865   97.194618   76.920891
H   39.449280   84.465919   27.737705
H    8.404482   99.975296   44.442463
H   68.765747   35.417248   46.576763
H   12.646171   54.849319   62.058414
H   17.253078   16.564846    2.319852
H   13.459572   77.896507   32.082230
H   88.296783   65.919052   70.788872
H   34.535767    8.287017   13.217873
H   33.428421   59.132053   43.284824
H   26.906727    8.282141   35.020226
H   74.107040   55.911350   73.153831
H   88.674637   76.879044   41.401424
H   10.616632   99.555588   40.495281
H   14.364188   37.738998   84.313416
H   21.341536   13.982540   32.108521
H   86.352638    6.495777   51.919941
H   92.095566   70.901878   12.622303
H   65.777740    8.756155   96.473686
H   75.758720   73.315483   45.873070
H   75.810226   57.880867   33.755768
H   22.185320   93.903259   89.576111
H   31.107536   38.484013   22.537754
H   18.130480   90.783836   85.785828
H   11.309210   71.658623   74.854492
H    9.221530   96.572052    2.417914
H   38.066277   37.046211   34.584949
H   64.083336   37.936333   76.452637
H   12.524615   78.229317   16.978506
H   20.269684   78.529770    9.385062
H   11.635269   22.778118   81.008751
H   75.211815   64.277252   49.494301
H   17.226971   63.314442   29.342651
H   12.119283   35.307373   86.823082
H    4.662127   60.593941   90.767128
H    1.208692   61.336357   86.347404
H   29.346718   23.447783   58.679935
H   83.935463   37.052540   38.657318
H   80.695038   75.279808   22.800472
H   45.244553   29.665295   20.823717
H   65.160416   73.056808   74.130066
H   35.853256   94.366447   41.672989
H   50.678669   95.852028   67.495705
H   32.039371   97.156662   49.659203
H   92.053543   94.807571   10.232524
H   74.510422   65.540825   24.603897
H   11.870116    4.427396   61.628479
H   39.178780   20.694201   78.594597
H   62.959839   62.382874    2.465591
H   96.635292   46.730816   77.322990
H   69.466393   76.091515   16.303690
H   12.866363   95.710663   91.195511
H   50.066727   62.129295   70.042770
H   97.088921   56.557667   99.638000
H    3.601186   19.171120   42.778629
H   74.411789   73.480568   93.733345
H   14.655422   86.860062   22.629536
H   28.277916   92.389809   55.144691
H   48.343525    2.870337   23.508001
H    1.457134   17.943365   53.980423
H   89.106697   38.484642   63.259300
H   39.657463   66.066849   17.979290
H   81.652534   85.634995   44.141712
H   13.594656   41.464012   44.385178
H   62.231544    9.640850   99.078438
H   93.751839   92.907280   99.962250
H   39.322556   14.515443   53.866562
H   41.547127   52.802200   50.948360
H   58.183964   87.678764   90.427231
H   14.125334    6.973347   40.277847
H   97.838028   36.744839   78.031609
H   28.748535   94.875168   79.234108
H   86.950180   11.247876   37.472923
H   69.515793   96.446793   58.688808
H   92.718277   53.813107   63.078445
H    2.813649   17.642200   26.048576
H   16.407391   58.246941   20.729805
H   58.616104   87.092033   63.862640
H   70.573624   19.268497   91.617081
H   54.822289   57.062004   68.041161
H    8.498863   20.697533   71.524872
H    3.771157   82.820030   14.742973
H   16.082081    6.102195   39.616650
H   42.725666   63.346756   14.439322
H   64.584068    4.119811    3.240890
H   70.000908   94.687424   35.619129
H   85.305832   73.617348   79.479187
H   20.233555   14.779443   47.813488
H   14.373054   40.426331   77.903358
H   79.590454   94.159470   12.354343
H   77.711128    9.632803   77.473808
H   31.284264   71.404556   86.705368
H   41.366577   48.255447   94.636703
H   42.726753   42.040737   98.923294
H   88.000801   92.107399   25.935486
H   95.804794   39.522793   56.014751
H   22.493294   63.356880   55.152859
H   78.349747    8.342780   27.406900
H   38.465420   98.149353   99.123604
H   14.407217   86.354317   62.328812
H   36.466728   13.743841   39.459892
H   52.676308   69.122971   15.617887
H   24.489025   19.048946   45.869469
H   12.800312   95.389870   13.879877
H   89.492126   36.931744   51.923912
H   60.973816   58.885525   93.955605
H   89.086624   31.998417   30.128208
H   24.957937   19.123106    8.674482
H   55.628109   90.496567    1.246841
H   11.731542   79.464294   97.812592
H   45.960949   87.713020   79.992722
H   61.052818    5.578234   58.425114
H   42.459465    8.660379    4.297092
H   87.879211   87.046623    7.851802
H    6.220121   17.468731   91.652695
H   37.518970   58.547165   21.165550
H   43.205173   81.779472   51.860313
H   87.698669   59.468258   73.255524
H   47.244698   26.019009   66.515381
H   90.632118   12.295208   67.042870
H   47.690193   94.787857   43.045120
H   94.633553   44.252705   89.794579
H   57.736061   93.081802   71.613068
H   71.205666   79.890465   13.155119
H   79.453575   52.182877   46.299347
H   61.407776   92.597343   40.416294
H    0.356015   29.280968   70.282516
H   98.814171   21.111158   77.421967
H   74.484283   62.298431   27.907566
H   57.096191   92.408951   24.443340
H   90.344643   13.780540    2.144045
H   69.489693   29.437469   57.595966
H   36.091885   89.779800   26.961754
H   45.285545    0.804186   74.238159
H   69.953941   88.197929   87.248795
H   96.685860   44.206818   73.070267
H   63.067886   53.297813   71.398483
H   43.795166   78.348061   77.646500
H   82.351738   44.218456   35.616043
H   27.729548   60.487011   61.189636
H   34.399624   68.558235   77.763603
H   28.341087    3.324516   88.746468
H   70.431953   48.508324   70.028976
H   69.427048   73.018799   99.146278
H   59.891624   93.970680   42.692215
H   25.149551   49.558228   65.147362
H   82.321381   38.029408   91.572212
H   29.895273   95.673019   66.009315
H   53.627506   72.196075   46.505104
H   60.770382   89.372650   28.064838
H    5.953732    7.870533   80.963326
H   26.854269   15.856109   60.111778
H   39.030609   70.808289   72.349136
H   82.530807   45.118298   73.782875
H   66.020950   80.107521   88.345749
H   55.159405   26.375298   24.741457
H   83.044220   99.318909   78.832672
H   56.493172   30.789677    2.839773
H   60.252392   58.367783   66.372696
H   13.507576   19.734468   29.990879
H   92.811226    6.622419   36.965523
H   34.803551   39.010307   43.774998
H   52.816681   43.838604   16.122810
H   22.957537   44.043709   58.797821
H   63.862106   87.199226   59.016968
H   24.192169   60.096714   74.518906
H    2.783416   26.085659   35.343342
H   55.725132    5.622456   83.185059
H   67.119324   13.256795   35.922279
H   24.018578   41.638142   59.426517
H   50.057987   49.910019   72.388077
H   63.332554   59.206882   89.111107
H   41.645294   90.214569   69.091629
H   20.694298   51.127750   23.913410
H   28.832764   72.946159   13.721027
H    7.411106    9.812164   73.076584
H   59.208092    6.477997   61.638565
H   55.809284   61.331062   95.427429
H   69.714989    8.160335   26.816103
H   32.156757   30.888515   93.016930
H   36.120346   89.490181   18.766594
H   65.440147   26.406418    0.771978
H   93.812263   60.532219   75.755997
H   12.679404   41.632599   87.162331
H   53.671967   93.545197   13.468193
H   59.625938   94.376289   47.956203
H   88.054695   64.031837   73.869293
H   61.269939   54.786427   73.801590
H   78.440620    9.816944   74.724007
H   42.398136    2.349054   16.459795
H   18.338566   32.773708   72.491180
H   23.905338   89.113029   46.231384
H   62.897274   25.624517   19.719507
H   76.893082   11.956334   20.784361
H   13.722077    3.038143   25.102095
H   10.280387   84.666580   28.889194
H    3.365440   13.405464   49.349297
H    1.322135   13.275756   88.843300
