100
TIME:    7.301, STEP:  7301
H   23.585268   52.484077   92.461746
H   98.841599    0.493155   38.456638
H    5.268321   99.167686   37.638439
H   82.702057   31.850174   39.970165
H   29.775709   57.964687   67.745193
H   14.798095   93.298378    1.788270
H   70.323395   54.337147   61.400860
H   46.042091   20.231571   37.840439
H   74.155357   84.331940   40.515026
H   75.343391   21.216539   93.581429
H   21.133789   60.014133   36.480370
H   77.183044   89.652176   73.236015
H   78.189140   20.065655   99.553688
H   93.579750   82.572151   12.848820
H   69.283943   17.871513   99.798615
H    7.965508   73.156799   26.994398
H   37.004189   64.873795   38.027187
H   57.196239   39.572250   46.435547
H   58.977512   84.639130   48.005932
H   95.817337   50.766270   13.418589
H   31.025024   29.379700   59.078938
H   62.334320   53.776169   97.530716
H   88.263329   35.243660   23.460440
H   40.689804   24.169405   64.839142
H   68.458687    7.153496   90.459450
H   13.182476   10.868557    3.825649
H   32.505199   38.983093   44.832462
H   16.504829   97.225716    8.103772
H   69.924019   11.496027   12.050196
H   80.946228   10.140013   63.797112
H    3.394620   76.749954   31.747124
H   26.746731   50.790684   23.373894
H   84.629768   34.305946   55.528694
H   86.586052    4.629673   64.171707
H   99.253777    6.881858   69.251587
H    7.301350   57.274551   96.472572
H   80.059555   37.157837   83.755646
H   62.226578   25.340046   37.652374
H   36.895031   22.339880   36.790833
H   75.520287   28.687883   12.461587
H   36.279449    6.699668   14.353006
H   84.925362   70.234024   52.688084
H   74.119659    7.284433   28.832760
H   13.150888   35.189537   94.588860
H   23.348480   43.831127   80.876167
H   83.882133    2.171899   12.822367
H   98.773727   21.891510   95.546242
H   56.633236   70.567917   20.322018
H   78.444771   27.781269   53.235535
H   79.025635   41.859325   73.047096
H   43.000271   64.779114   30.389240
H   59.957272   86.260223   94.771423
H   60.318676   64.342407   78.838692
H    7.620010   88.080475   53.988968
H   59.478531   98.429146   62.449276
H    2.689146    4.853780   44.083527
H   59.102261   78.879051   50.373344
H   82.408371   87.397789   25.498777
H   66.089897   47.260471   50.987572
H   77.227547   88.966965   55.952782
H   20.253267   39.041222   45.152039
H   39.791176   59.985397   65.008896
H   69.726524    9.075610   32.818970
H   44.386608   81.534714   28.917126
H   22.111248   77.726105   75.479195
H   52.835419   79.319054   77.875946
H    1.795149    0.778091   19.554602
H   76.035683   35.089958   15.232619
H   20.782295   25.183029    2.325695
H   78.304283   15.355705   86.358292
H   90.192085   98.641678   74.570656
H   72.047157    9.177661   91.206856
H   30.952848   57.174007   74.553040
H   69.482246   87.339050   69.352997
H   14.167993   39.065517   54.868397
H   98.255058   75.499290    4.665334
H   29.869743   93.879951   20.225515
H   74.994583   73.326714   17.645807
H   11.623687   32.073383   99.135933
H   41.476700   11.299199   91.933601
H   53.744011    4.814553   16.353683
H   89.157906   91.818756   76.202049
H   79.680153   29.216589   25.253334
H   52.445881   36.921871   96.584221
H   96.831635   92.200218   40.002235
H   83.258652   77.233261   48.786865
H   54.772068   72.510292   71.683189
H   73.449181   20.840227   19.877892
H    7.199096   87.664589   68.478035
H   20.832006    8.891682   85.209793
H   22.809742   67.663170   87.645554
H   18.498964   44.584045   72.637184
H   53.461628   46.586353   83.602119
H   52.879272   56.116051   19.093973
H   30.363430   95.749893   83.856018
H   96.954224    7.423819   90.342613
H   83.083488   86.669266   17.301620
H   24.184702   47.712177   32.314743
H   60.910240   68.329689   33.502140
H   92.704933   91.278946   94.411392
