100
TIME:    4.849, STEP:  4849
H   89.404701   77.343361   94.706619
H   66.557716   67.625443   83.851013
H   63.104568   22.760239   66.427361
H   82.290497   32.872429   74.373787
H   51.738998   61.426239   34.227417
H   52.829838   95.954811   58.959660
H   98.834953   88.765076   69.651123
H   38.764458    8.102674   62.975857
H   34.430260   20.081940   94.859200
H   42.329231   86.007820   97.569733
H   49.212860   61.352573   72.668610
H   70.769600   66.745979   47.771629
H   34.642319   68.361595   43.200928
H   14.987487   90.129890   26.251017
H   39.482628   36.894867   17.684834
H    6.555649   87.617691   30.532097
H   34.179482    2.695346   14.811949
H    4.760606   58.880512   31.434095
H   20.793217   81.775070   18.826868
H   61.873917    2.842039   46.475075
H   76.530190   73.484589   25.634418
H   27.258698   50.521103    6.341114
H   21.002892   55.185616   93.613861
H   68.516846   94.836395   46.944504
H   56.155792    1.608711   72.350807
H   24.441843   83.308334   34.440350
H   43.944366   40.910084   96.177467
H   23.397572   82.774643   27.053926
H   16.608284   89.031425   27.956757
H   86.925903   70.826866   68.870216
H    6.892953   56.874020   25.741493
H   71.926064   18.540489   50.367821
H   11.913906   13.706530   34.633171
H   82.982986   29.340729   67.470528
H   60.238403   92.372757   19.998940
H   94.153259   65.223152    4.182316
H   44.881004   26.955513   90.547653
H   63.571758   70.216209   64.620628
H   40.395298   75.766167   74.408249
H    6.472200   58.236900   19.543188
H    3.857379   22.564901   56.586040
H   95.819969   29.483103   30.609613
H   53.008114   92.577957   51.721581
H   69.717529   94.033142   54.845123
H   36.041012   40.574142   71.052513
H   15.528894   55.404072    2.859556
H   79.617477   88.542503   72.012489
H   56.498379   45.313095   68.606575
H    6.773390   30.855503   51.046654
H   27.575748    4.536230   44.518219
H   43.174671    1.503438    4.543067
H   40.784203   13.788046   55.735214
H    9.454196   50.124878   21.246225
H   64.396721   28.087906   45.788841
H   54.710541   83.545418   41.590664
H   99.633408    7.433045   27.555405
H    3.658329   49.630959   17.167839
H   64.988907   18.959410   88.655502
H   72.706306   43.651596   39.222687
H   39.034489    0.497372   25.693489
H   65.579315   53.069935   36.329498
H   26.814699   82.808273   75.953293
H    3.258495   76.395920    0.959966
H   76.012428   68.177719   95.487473
H   24.786840   73.563232   47.135563
H    3.464248    1.215004   32.894051
H   98.523682   16.005653    1.171207
H   45.412239   94.856155   98.012840
H   98.574387    1.368119   56.112961
H   28.627394   92.032715   91.522522
H   68.054848   65.474045    3.979556
H   74.144257   90.595932   11.642440
H   90.827072   78.454414   37.420547
H   23.463398   42.525402   15.042484
H   95.961678   35.552753   68.985077
H   40.292267   18.347731   69.652237
H    7.212350    6.266846   76.805626
H   59.795162   33.655903   82.232170
H   94.040916   39.275684   71.785896
H   61.721069   44.867107    3.175612
H    5.759404   79.446793   69.802330
H    5.150949   75.895218   81.306908
H   24.584490   88.211731   91.737778
H   83.753036   27.098703   20.536087
H   16.222944   45.577728   77.696281
H   39.692623   87.166466   78.512421
H   91.008461   50.791122   54.762589
H   34.006897   17.072023   45.315811
H   56.314316   24.187464   88.532234
H   37.621822    9.773346   97.558395
H   22.463768   35.264027   35.863811
H   37.075794   60.170349   25.921659
H   96.283928   73.015434   93.985153
H   15.901591    7.359922   53.760914
H   72.754478   15.385284   27.510452
H   94.429077    4.250442   16.992043
H   77.711662   45.954739   58.318573
H   24.664473   57.524017   78.440666
H   77.717987   57.752430   38.882729
H   40.400585   54.198574   30.620611
