100
TIME:    1.702, STEP:  1702
H    2.223457   65.939255   97.587784
H   53.926033   97.024223   85.361931
H    9.010702   96.353249    3.355887
H   81.762283   62.527794   46.871387
H   79.926392    9.180318   19.556278
H    1.623531   99.364189   47.300800
H   63.766796   76.265419   23.551476
H   86.112450   35.846416   51.922691
H   11.789589   22.653152   92.951866
H   28.328035   40.821556   74.339622
H   41.939133   34.726002   75.803680
H   90.878906    9.003092   71.778908
H   34.998352   58.734032   55.963348
H   70.808586   99.829811   86.762840
H    1.201923   17.997749   68.960312
H   33.091217   62.867874   91.760513
H   87.229218   94.552963   28.318144
H   37.515411   11.932487   40.541306
H   71.770958   49.755661   53.029209
H   46.662369   69.668320   32.212685
H   63.277542   86.777771   11.049484
H   25.546818   46.346382   74.333412
H   63.019875   80.779961   83.653458
H   60.907280   57.094547   80.669220
H   68.710686   51.189598   49.119812
H   38.854862   76.893509   29.644228
H   15.313049   71.728592   33.740604
H   88.932205   35.883312   23.030996
H   48.179306    3.511019   76.718102
H   66.255562   48.715561   18.692650
H   83.053596   74.671844   74.730774
H   73.222534    5.489756   41.701393
H   90.244095   43.955498   51.126556
H   50.015068   17.744453    0.049357
H   38.465950   30.262123   28.368439
H   20.537106   18.184504   14.788690
H   43.042839   42.205910   42.576176
H   93.645164   27.802685   42.546368
H   74.205978   44.175316   78.998657
H    2.884430   52.848248   71.944839
H   18.928726   14.583137   82.442917
H   78.655121   88.244209   82.762985
H   25.901159   73.706329   24.410908
H   70.675148   41.296089   47.146259
H    9.020023   64.736160    1.754430
H   56.129375   95.379829   90.081947
H   54.051624   17.553400   42.166695
H   56.330311   12.907068   73.888054
H   14.782605   91.490135   76.581772
H   61.586178   56.654926   64.623253
H   43.414768    5.326117   71.362473
H   87.847404    5.805807   62.330173
H   44.185654   31.877502    4.019630
H   37.277905   79.437447    6.921633
H    5.263105    7.710997   14.848814
H   95.695816   10.743227   34.686707
H    4.152088   40.436653   17.861944
H   99.322845   16.154572   69.715897
H   24.510147   10.681828   80.820343
H   46.703571   58.610332   15.200700
H   67.064163   99.422188   81.694206
H   38.503845   12.102579   18.343681
H   89.678299   91.089302   16.794533
H   59.913788   51.052948   80.931984
H   99.876427   24.907852   54.065746
H   96.788857   57.661568   46.820873
H   51.014145    7.206364   49.235302
H   62.796989   14.876241   47.568043
H   41.730286   27.491455   53.487068
H   64.863098   33.748413   98.149200
H   67.986122   79.596504   41.734623
H   33.629658   95.038849   81.234581
H   96.017578   34.118206   18.106388
H   92.732414   41.673851    2.053657
H   44.231544   31.065443   30.421532
H   65.898247   16.654448   81.406212
H   21.485182   79.029526   21.148787
H   11.943385   39.431129    8.434125
H   43.134811   48.516453   36.667961
H   16.056381   16.258978   74.292397
H   44.188854   46.889629   81.713432
H   69.026871   55.342911   44.457596
H   25.488232   35.664368   92.007050
H   67.253548   57.803936    7.971046
H   69.456116   42.423607   82.762695
H   12.117641   71.573738   59.975319
H   80.827446   79.603653    4.701028
H   83.354004   69.028381   78.051338
H   91.003120   99.408073   14.274847
H   15.858505   39.251007   85.059853
H   93.675362   65.333054   69.404861
H    4.217795   23.512327   65.950096
H   94.488121   78.628647   50.586624
H   11.732021   16.471098   41.575607
H   27.166050   97.274109   55.196465
H   34.499832   28.520472   79.538330
H   27.505360   65.354774   39.305756
H   13.114306   30.729187   28.804276
H   27.632851   44.186947    2.483210
H   44.941330   34.985424   33.759224
