100
TIME:    7.373, STEP:  7373
H   18.716402   45.881294   92.395828
H   96.853073    4.394880   42.996738
H    6.506000    4.347533   36.793041
H   82.714142   28.883591   36.023327
H   29.130537   63.735806   65.792923
H   13.681472   93.220375    8.918682
H   66.549591   59.199146   67.031357
H   40.383034   26.460270   31.229416
H   72.385460   77.409454   35.982616
H   73.376839   22.250353   96.400520
H   14.436523   62.911228   29.545153
H   74.435364   93.261185   68.110893
H   73.597954   15.707918   92.398293
H   90.014687   82.350227   18.328251
H   70.158455   11.440117   96.335724
H    5.070405   66.859436   21.017561
H   31.214394   69.636368   44.581631
H   58.735973   36.068710   43.940002
H   60.098667   87.659271   51.798962
H   93.877151   49.237522   18.320688
H   26.752441   22.211670   57.125019
H   69.237030   53.871750   91.399246
H   87.302025   34.658089   21.400229
H   33.999680   25.030733   59.491631
H   65.883492    1.443352   90.991188
H   12.842999    8.746273   97.050163
H   26.296530   35.989868   46.261234
H   10.429791    0.586430   10.483823
H   71.489571   18.028318    8.646906
H   83.707092    8.357893   69.520988
H    6.228399   83.206619   26.050713
H   31.292873   48.801609   16.708488
H   89.701057   29.038157   62.015022
H   89.628166   98.031349   61.138382
H   97.461906    1.430494   73.631836
H   13.560116   62.913834   96.246254
H   86.965561   34.521118   89.428986
H   59.250931   24.022236   42.733002
H   33.855663   20.771307   29.813503
H   68.738426   21.947496   18.126413
H   31.358709    9.169980   16.049162
H   78.857613   70.516373   56.363560
H   74.739288    7.716333   34.033138
H    8.553522   36.398033    1.628815
H   17.103027   40.990612   87.037300
H   82.952690    3.544950   13.114878
H   99.336227   25.807312   96.237282
H   56.637630   71.309494   24.776974
H   80.549751   21.818439   50.363159
H   80.537354   42.955212   68.013161
H   42.995327   57.828064   31.148121
H   63.456417   79.579437   90.045105
H   61.812267   64.759888   74.657295
H    5.952835   86.906036   57.166214
H   53.745865    4.738903   63.061764
H    2.778822    4.778043   41.632477
H   63.666531   76.801537   57.221123
H   77.047043   80.598351   23.644011
H   71.767632   50.303135   45.460350
H   72.475960   94.500778   53.904930
H   24.795290   35.693138   39.538574
H   37.235756   59.315231   61.751068
H   74.614342    4.162387   27.881714
H   49.331005   81.926926   26.962109
H   24.969067   71.975861   82.184151
H   48.412323   75.739708   82.133148
H   96.018463    3.267242   23.030951
H   71.062172   39.207634   18.674637
H   24.370979   20.009567   97.810089
H   79.766563   18.971880   86.205582
H   87.905830   93.742874   73.707130
H   66.117836    6.786899   96.484688
H   26.258116   53.612789   72.707336
H   67.896919   82.781921   65.074921
H   17.636103   39.171535   60.327503
H   99.956841   80.113548   99.820717
H   36.408894   87.648506   21.502401
H   78.377274   68.619072   21.622309
H   15.076278   31.861897   99.939034
H   37.945694    7.376932   85.730721
H   55.153557    5.559426   20.657028
H   94.560982   92.285675   70.178246
H   84.233986   30.420691   32.110451
H   57.399067   43.083004   90.007805
H   93.325897   87.695824   33.022621
H   81.601913   79.877670   53.786743
H   59.580784   67.275307   75.116417
H   74.607140   15.078722   19.131371
H    8.693475   83.655678   67.889168
H   14.466220    5.929218   87.783890
H   25.756275   71.551231   89.166061
H   23.826235   49.999207   74.009377
H   58.076984   48.746815   89.169991
H   59.837463   60.484215   23.948832
H   29.118404   89.300919   85.510559
H    2.901155    4.580763   86.623741
H   77.368401   90.801224   13.160693
H   24.045725   51.274494   30.869276
H   57.480309   68.640602   27.471195
H   97.177467   89.431046   87.475723
