100
TIME:    1.381, STEP:  1381
H   23.930792   95.376663   97.881668
H   62.855217   79.621376   65.113304
H    3.493036   73.258842    7.124593
H   81.708405   75.752586   64.467644
H   82.801559   83.450768   28.259712
H    6.601434   99.711952   15.510494
H   80.591637   54.590389   98.448769
H   11.342422    8.076626   81.395393
H   19.680382   53.515900   13.157603
H   37.099968   36.212471   61.770737
H   71.797775   21.809788    6.724920
H    3.129577   92.913261   94.628410
H   55.415962   78.154884   87.868767
H   86.702827    0.819419   62.335995
H   97.297844   46.669209   84.389236
H   45.997635   90.943718   18.405746
H   13.037001   73.324722   99.092583
H   30.655663   27.542801   51.669724
H   66.770027   36.288414   36.118618
H   55.309914   76.486435   10.357492
H   82.326141   18.734169   19.761929
H   94.767021   45.922699    1.664775
H   67.305687   83.390633   92.837341
H   90.731636   53.244663    4.508513
H   80.191765   76.648537   46.751595
H   40.326733   86.459442   59.730728
H   42.993759   85.070938   27.370665
H   16.017181   20.900112   12.420550
H   41.199554   74.387177   91.892326
H   53.946712   56.660233   93.174522
H   70.426369   45.885880    0.132164
H   52.954319   14.358239   71.417992
H   67.634598   67.441750   22.208342
H   36.452309   47.162270   13.572184
H   46.444908   54.527168    8.822685
H   92.627014   92.968277   15.892447
H   12.255227   53.961281   17.282537
H    6.913071   33.677921   19.895237
H   88.635696   51.027718    9.764087
H   33.118950   82.898827   46.688702
H   40.864738    3.568722   74.880295
H    7.504784   73.838982   67.681824
H   23.136198   71.781387    1.224966
H   91.173576   35.915558   15.761233
H   36.864120   77.402573   74.285965
H   60.270695   89.257240   88.779060
H   50.662159    0.236690   39.423775
H   56.313168    9.602095   54.026379
H    5.400265   18.075264   89.385330
H   54.853779   51.769100   87.076012
H   43.439259   36.317268   67.977905
H   72.247047   35.592373   83.401871
H   37.526726   30.016235   22.662914
H   44.710728   84.673485   92.756973
H   30.818535   79.571167   12.124874
H   95.294174   11.080582   45.614304
H   83.800980   49.698906   87.331963
H   23.225563   46.469490   77.983841
H   99.194359   97.118546    5.462818
H   67.885727   33.936298   24.330650
H   46.815533   14.349740    6.722849
H   49.896759   15.091015   32.868912
H   67.906372   12.979397   38.816261
H   37.870018   49.306786   89.645653
H   87.136543   50.546467   24.170691
H   16.508095   73.619484   27.840849
H   76.768204   96.108337   33.737804
H   84.970558   96.517380   32.222385
H   25.730736   50.556473   73.619423
H   58.360580   17.603014   98.825134
H   78.179008    1.437090   45.584507
H   60.096386    5.692484   57.732979
H   16.947941   49.995304   26.337597
H   99.795433   61.988602   21.131660
H   28.755833   30.608698    6.086713
H   58.309299   96.081444    3.006477
H   92.340691    6.850826   15.470320
H   96.862213   60.421814   90.707031
H   27.747522   49.456882   33.087471
H   31.798782   33.741539    1.946881
H   37.907078   43.568737   62.527691
H   44.941120   53.246536   71.299026
H    5.177967   30.306265   61.433292
H   45.170956   30.335550   37.290901
H   85.085861   62.503250   13.879887
H   19.506382   59.783207   37.684196
H   59.388588    2.942978   89.394424
H   78.186539   94.728561   81.387505
H   84.341743   17.280466   16.901035
H   44.239685   52.458656   73.583672
H   80.538734   48.001041   62.625927
H   80.466972   99.370918   59.834076
H   73.891731   69.008835   25.753096
H   80.706886   97.000130   19.932796
H   32.716633   26.027924   47.819969
H    7.986572   41.196342   96.118301
H   52.984909   46.933132   57.766586
H   11.935708   27.996063   33.940666
H   42.924278   42.803242   29.371235
H   25.006180   43.231327   64.675850
