100
TIME:    7.164, STEP:  7164
H   32.849686   65.047707   92.587173
H    2.624998   93.069893   29.817970
H    2.913294   89.311195   39.247044
H   82.679062   37.494415   47.480122
H   31.003328   46.983532   71.459930
H   16.922894   93.446800   88.221146
H   77.504105   45.085842   50.687283
H   56.810020    8.379573   50.419746
H   77.523079   97.503891   49.139194
H   79.085304   19.249422   88.217323
H   33.877197   54.501606   49.676361
H   82.411270   82.785034   82.987984
H   86.925148   28.357441   13.168247
H    0.363259   82.994423    2.422690
H   67.619942   30.109032    6.386835
H   13.474377   85.139282   38.366699
H   48.020882   55.812618   25.555536
H   54.266468   46.238708   51.184013
H   56.844204   78.892471   40.788639
H   99.509079   53.675137    4.091037
H   39.154800   43.018867   62.796810
H   49.199997   53.594299    9.197464
H   90.092476   36.357872   27.380564
H   53.419624   22.530489   75.013382
H   73.358711   18.018631   89.447670
H   13.828426   14.906792   16.718248
H   44.319401   44.678535   42.113827
H   28.064518   90.831017    3.575065
H   66.945122   99.066444   18.525900
H   75.692917   13.530991   52.905846
H   98.002876   64.464355   42.586128
H   18.096432   54.575451   36.056679
H   74.980232   44.329674   43.186653
H   80.797585   17.184738   69.943451
H    2.663428   17.254677   60.916557
H   95.392265   46.544250   96.903206
H   66.918961   42.174927   72.960541
H   67.889290   27.847546   27.985069
H   42.678272   25.324526   50.067307
H   88.424660   41.513729    1.682682
H   45.642593    1.999179   11.125607
H   96.470940   69.696777   45.694469
H   72.940643    6.462624   18.937595
H   21.898479   32.890038   81.193230
H   35.232048   49.235996   69.152901
H   85.650658   99.559189   12.265783
H   97.703415   14.440610   94.231346
H   56.624874   69.156860   11.845354
H   74.439461   39.127209   58.701027
H   76.149170   39.774097   82.625557
H   43.009678   78.005417   28.945259
H   53.299175   98.972275    3.764704
H   57.476704   63.548035   86.794960
H   10.792274   90.315170   47.943375
H   70.386520   86.423668   61.283848
H    2.518512    4.997890   48.747330
H   50.417469   82.832100   37.343544
H   92.609787    0.335625   29.027987
H   55.285591   41.470959   61.504646
H   86.268761   78.437347   59.849388
H   11.610941   45.411880   55.833214
H   44.653572   61.260574   71.207092
H   60.425694   18.424450   42.213470
H   34.978519   80.788422   32.637089
H   16.673454   88.667542   62.721149
H   61.251587   86.129753   69.775436
H   12.787218   96.041229   12.939883
H   85.499168   27.254622    8.683227
H   13.953905   35.026978   10.918258
H   75.525108    8.469499   86.647797
H   94.542320    7.963229   76.213753
H   83.325081   13.731967   81.165382
H   39.885422   63.950214   78.065002
H   72.498772   96.010254   77.493225
H    7.568951   38.863789   44.480930
H   95.016945   66.719383   13.883500
H   17.426838    5.737463   17.795885
H   68.558075   82.284309   10.079614
H    5.054232   32.475796   97.607811
H   48.195419   18.762478    3.736242
H   51.061958    3.397225    8.165124
H   78.877052   90.930313   87.664009
H   71.015221   26.925451   12.205841
H   43.021069   25.198303    9.097027
H    3.502272    0.770998   53.282890
H   86.411057   72.201538   39.273209
H   45.622150   82.471306   65.150520
H   71.245842   31.803091   21.298355
H    4.355687   95.292656   69.598518
H   32.944660   14.528591   80.311859
H   17.203144   60.265579   84.752365
H    8.362352   34.280197   70.026207
H   44.679630   42.475475   73.007698
H   39.639381   47.804405    9.856431
H   32.732277    8.021461   80.707794
H   85.638596   12.833638   97.418800
H   93.958031   78.807068   25.181065
H   24.449144   40.933880   35.064735
H   67.436638   67.738091   44.977688
H   84.194695   94.795090    7.608939
