100
TIME:    2.288, STEP:  2288
H   62.594147   12.200015   97.051285
H   37.625404   28.796072   22.326254
H   19.083471   38.511459   96.478157
H   81.860641   38.385338   14.749666
H   74.677643   56.150806    3.668333
H   92.538338   98.729332    5.333696
H   33.056698   15.833668   69.377434
H   40.054008   86.543091   98.116798
H   97.384529   66.311508   56.066593
H   12.315775   49.235649   97.283897
H   87.430847   58.305134   19.358076
H   68.515839   38.376144   30.066214
H   97.723259   23.280388   97.720757
H   41.792931   98.023598   31.357975
H    8.330231   65.653839   40.790428
H    9.528675   11.612338   43.117935
H   40.115662   33.306099   81.670135
H   50.038193   83.435097   20.224579
H   80.900383   74.338852   83.903137
H   30.875885   57.223980   72.110329
H   28.503464   28.439716   95.143860
H   81.733139   47.121338   24.433914
H   55.195930   76.014061   66.887863
H    6.461555   64.122681   37.147446
H   47.751457    4.715370   53.443100
H   36.167896   59.431637   74.717140
H   64.783089   47.368481   45.369221
H   39.487099   63.235821   42.401196
H   60.921158   56.677132   49.016869
H   88.725929   34.212204   65.278008
H    6.105901   27.223059   28.362637
H   10.222868   89.297752   87.452461
H   31.520889    1.081810    3.918064
H   74.774498   64.041214   75.361465
H   23.898758   85.964783   64.050102
H   71.487137   64.219902   12.774583
H   99.248383   20.744776   88.750854
H   69.422234   17.077175   83.899178
H   48.496826   31.563677   22.587873
H   47.689075   97.987892   18.048868
H   78.881187   34.690372   96.248825
H   25.988800   14.543626   10.293785
H   30.948721   77.220398   66.736900
H   33.254341   51.118492    4.442867
H   58.187672   41.617382   51.901588
H   48.569210    6.556873   92.460426
H   59.605381   49.267242   47.419411
H   56.361607   18.940447   10.146355
H   31.910337   42.956799   53.206230
H   73.872887   65.573433   23.639133
H   43.370060   48.752098   77.541153
H   16.325285   51.430302   23.858723
H   56.341827   35.275330   69.987419
H   23.708950   69.878822   32.778717
H   58.613586   59.084194   19.820631
H   96.429031   10.127371   14.737885
H   41.300533   23.527992   73.595253
H   55.687592   60.814285   54.622391
H   70.725716   35.442944   35.832100
H    8.035173    3.650321   98.534431
H    4.029073   72.168037   36.005116
H   17.707104    6.647055   91.829102
H   29.426014   51.129066   76.592453
H    0.151681   54.240646   65.024788
H   23.136024   78.105774    8.637803
H   60.789772   28.529671   81.469765
H    3.997614   27.465445   77.526688
H   22.318138   48.390686   75.582230
H   70.937126   85.385246   16.732414
H   76.737610   63.224564   96.915253
H   49.378548   39.724495   34.704983
H   85.310974   75.590759   24.137953
H   57.809906    5.133846    3.079962
H   79.838554    4.589717   67.225914
H   72.484032   31.899252   74.843735
H   79.748863   54.212936   41.976032
H   74.691132   28.237967   31.514395
H   39.474728    1.113410   40.798168
H   71.229187   46.798153   43.205841
H   87.317451   84.345062   23.807838
H   55.656521   52.952068   16.737289
H   12.993958   59.169937   95.455910
H   62.564785   45.446533   47.820530
H    7.563235    7.948702   54.446320
H   40.923309    5.767624   25.956390
H   98.629944   93.096291    0.668782
H   19.965078   36.996689   32.644073
H   92.787445   22.111542   71.953133
H    3.164205   66.779991    9.481005
H   64.049576   15.139847    6.009288
H   17.657043   96.977554   81.780106
H   47.578220   67.582329   77.118217
H   32.085880   96.190048   95.920792
H   68.372475   52.017651   81.086220
H   17.032925   44.784981   68.662590
H   82.900986    5.381203   49.270844
H   80.991837   98.984322    5.604370
H   15.265891   35.718628   19.426720
H   99.718590   46.712963   53.394722
H   81.333847   19.933949   77.318512
