100
TIME:    5.223, STEP:  5223
H   64.112221   43.045570   94.364212
H   56.228432   87.890244    7.431986
H   69.535721   49.667252   62.037563
H   82.353271   17.462757   53.873596
H   48.389114   91.403992   24.087570
H   47.028889   95.549629   95.997093
H   79.232140   14.018904   98.898407
H    9.368797   40.457478   28.635265
H   25.236626   84.123169   71.318703
H   32.108376   91.377907   12.215567
H   14.424286   76.401367   36.643833
H   56.495422   85.492775   21.150049
H   10.776535   45.745598    6.038311
H   96.469566   88.977119   54.713615
H   44.030937    3.488335   99.706543
H   91.517746   54.906387   99.486053
H    4.104477   27.431789   48.858643
H   12.758100   40.684422   18.469702
H   26.618420   97.463028   38.529552
H   51.798584   94.898720   71.938759
H   54.336494   36.251381   15.483471
H   63.114441   51.017593   74.491592
H   16.009453   52.143898   82.913635
H   33.765736   99.310516   19.167377
H   42.779083   71.950378   75.112892
H   22.736940   72.254288   99.270981
H   11.693357   25.362553    3.597499
H   91.840462    0.231703   39.417679
H   24.740456   22.963335   10.278557
H    1.266983   61.570457   98.602577
H   21.612625   90.412201   96.151802
H   95.540749    8.207812   15.744743
H   38.258312   86.343102   68.326042
H   98.785080   95.066032   51.714088
H   50.942047   64.101334   42.771873
H   26.663828   94.516090    3.005911
H   80.752350   13.257797   20.017132
H   48.114925   63.373508   91.014519
H   24.607471   67.616875   38.164444
H   71.244484   23.223267   48.969631
H   78.296844   35.396614   65.397316
H   62.206993   46.269402   48.177959
H   56.229595   94.820724   78.736214
H   45.836796    0.310617   91.413498
H    3.599531   25.819244    3.056308
H   10.703093   62.537556    4.379924
H   82.539352    8.882001   75.602058
H   56.518353   49.165176   91.747597
H   17.704781   99.881836   36.126259
H   35.419727   10.228750   18.361160
H   43.146137   65.396545    8.485744
H   58.960320   79.084427   31.181763
H   17.211971   52.293457   99.524773
H   55.736542   21.984497   62.292870
H   24.932186   16.323462   44.772198
H    0.100923    7.039634   14.823563
H   27.367546   38.839424   52.738243
H   37.139786   83.639580   79.022446
H    2.204489   59.453690   10.510056
H   14.355440   29.245235   15.056038
H   89.171173   35.678501    7.170453
H   13.542139   79.327133   59.031830
H   28.649424   50.875168   75.313660
H    1.693084   70.215042   85.335098
H   39.632355   43.691967   81.964088
H   80.488914   82.622337   55.007851
H   68.517395   28.935806   19.228802
H   19.577614   16.246176   15.892203
H   17.214895   74.494865   32.655212
H   36.203789   10.843374   90.734985
H   56.179024   40.027481   99.492958
H   43.306694   78.183670   39.025398
H   66.441971   59.953636   27.830292
H   15.231358   18.855709   92.821098
H   13.993623   36.086338   97.336395
H   49.134933   42.318275   44.487522
H   41.169552   73.851997   83.419792
H   77.366364    9.200798    2.885355
H   11.975804   38.177128   75.957558
H   43.379868   24.496643   70.955139
H   13.077755   83.315994   92.155815
H   33.213799   78.337723   50.033714
H   48.241974   94.466370   27.355711
H    9.484415   59.102585   86.376709
H   98.011818   22.182755   41.441063
H   31.083935    0.902796    4.484105
H   15.987097   23.598282   72.596298
H   40.027557   87.128983   41.426636
H   64.075546    3.364397   85.473396
H    4.554782   94.386032   10.927855
H   37.769371   55.457493   43.762005
H   64.748009   88.299103   33.046585
H   20.257677   84.237099   22.907185
H   52.050423   30.046461   78.978050
H   66.288689   81.885216   36.104130
H   25.320007   89.481537   97.673981
H   48.024956   67.417961   36.809692
H   26.036955   60.708405   72.454247
H   59.901398   59.364597    7.555321
H   63.630062   44.602612   94.592133
