100
TIME:    0.119, STEP:   119
H    9.275180   11.108378   99.037064
H   97.959984   11.196743   85.507019
H   81.809021   82.465309   21.942612
H   81.496582   27.747950   33.640228
H   94.105179   82.295898   62.478676
H   26.171032    1.084135   90.530327
H   46.733112   69.374153   99.758438
H   10.533133   98.897705   97.267296
H   50.702751   74.851990   92.596153
H   71.588524   18.095715   12.348696
H   89.185944   71.030762   28.287113
H   51.299931   29.655357   84.458778
H   35.692932   54.507751   13.301562
H   49.189854    4.710362   66.297142
H   81.950340   59.391830   45.052723
H   96.738220    1.328740   23.161793
H   14.498734   89.866768   84.189522
H    3.687720   88.913559   95.420700
H   47.117317   83.345627   69.630722
H   89.428169    3.037146   24.306437
H   57.214920   44.370987   54.011497
H   73.758278   44.257004    9.122601
H   84.155205   93.654396   28.946247
H    7.985187   38.108982   98.236206
H   25.326712   76.735710   37.437027
H   46.109470   24.067516   78.017052
H   51.817806   37.530437    2.327739
H   22.499847   61.993694   70.709518
H   13.758714   59.888515   51.546814
H    5.557008   87.894424   92.849144
H   20.782869   32.713615   99.995384
H   73.271118   49.222412   88.247673
H   78.740540   59.775536    8.517415
H   83.130089   62.817047   66.738075
H   77.813896   49.924728   31.974731
H   82.901573   93.833794   20.234869
H   91.213280    0.176584   17.841583
H   59.069969   56.776203   30.838900
H   45.371151   77.967690   30.721123
H   51.984455    1.042323   47.397125
H   27.109402   60.261959   45.142010
H   20.926132   17.197390    8.391091
H   12.266679   64.213547   10.069035
H   71.760620   14.766114   92.366837
H   46.332764   27.196754   66.290710
H   76.431618   65.441216   83.784950
H   37.336597   32.160107   28.640081
H   56.245770   96.607300   75.940994
H   68.505913   22.593800   39.727318
H   28.385595   32.560650   75.341324
H   43.531765   58.155975   54.678120
H   10.916455   52.697144   66.251083
H   11.347818   22.698730   95.958321
H   73.929337    5.260640   37.066914
H   31.285995   68.937790    1.415947
H   93.715134   12.407230   88.575760
H    3.796722   86.113121   67.305321
H   17.198751   65.648476   10.489754
H   99.663200   43.797043    2.347350
H   51.168694   36.934753   60.218430
H   67.207321   73.035751    5.118268
H   94.687592   26.837723   89.969955
H   82.304985   99.038170   25.394257
H   51.211418   42.441811   23.909849
H   37.044968   51.340420    6.643059
H   94.035133   36.357319   53.222073
H   78.020866   52.475445   72.807541
H   72.145592   24.343163   71.891487
H   62.835083   41.235741   52.769978
H   32.797455   54.129997    1.480526
H   18.253946   87.307533   60.720188
H   64.153831   47.576164   65.335426
H   99.232239   12.421093   58.698299
H   27.571678   41.849415   96.136086
H   67.907761   28.813021   10.418780
H   28.471212   15.198954   87.922470
H   77.759857   16.230015   93.137756
H   37.571167   42.939182   21.011848
H   67.258308   53.151615   19.015347
H   93.689468    2.472749   10.669180
H   13.210772   30.512220   87.101181
H   50.252705   45.004715   76.829895
H   25.325531    9.243596   41.233948
H   58.356949   22.344578   52.560860
H   46.536400   41.441513   36.216469
H   48.558842   13.420997   50.048313
H   75.102455   94.700645   29.217571
H   57.870834   95.766747   94.501244
H   58.152779   87.546761   27.227383
H   55.813850    4.390778   28.465857
H   28.892550   79.856613   35.974804
H   87.091423    4.456575   35.792221
H   92.919640   31.197142   28.121107
H   58.730423   20.450426   34.842449
H   54.534351   39.070606   18.821732
H    3.750500   91.032402   61.302422
H   53.156548   74.509590   30.345116
H    7.302272   17.250885   54.131203
H    3.043234   37.363255   35.083660
H   46.631817   75.646339   86.224472
