100
TIME:    4.811, STEP:  4811
H   91.974525   80.828163   94.741409
H   67.607216   65.566452   81.455139
H   62.451385   20.026466   66.873253
H   82.284119   34.437981   76.456551
H   52.079361   58.380371   35.257782
H   53.419239   95.995979   55.196247
H    0.826602   86.199310   66.679474
H   41.751183    4.815267   66.464806
H   35.364372   23.735474   97.251015
H   43.367714   85.462196   96.081879
H   52.747528   59.823551   76.329102
H   72.219765   64.841225   50.476555
H   37.067184   70.659477   46.976807
H   16.868942   90.247017   23.359095
H   39.020500   40.289215   19.511456
H    8.083622   90.941299   33.686462
H   37.235207    0.181995   11.352659
H    3.948006   60.729313   32.751415
H   20.201351   80.181107   16.824991
H   62.897614    3.649023   43.887856
H   78.785164   77.267426   26.665798
H   23.615601   50.470657    9.577148
H   21.510246   55.494667   94.701050
H   72.047455   94.381805   49.766846
H   57.514923    4.622398   72.070168
H   24.615068   84.431473   38.013577
H   47.221298   42.489841   95.423683
H   26.603909   81.000931   25.797716
H   15.782001   85.583733   29.752937
H   85.468781   71.767357   65.849281
H    5.397344   53.466625   28.747932
H   69.526711   19.590279   53.885674
H    9.237175   16.486689   31.209829
H   81.377426   32.823212   69.071449
H   61.182953   95.245255   17.685112
H   90.849945   62.246861    4.301870
H   41.236458   28.347260   87.553391
H   65.142448   70.911430   61.939121
H   41.999409   76.594170   78.090775
H   10.051371   61.794472   16.553419
H    6.454347   21.261145   55.690777
H   99.235191   27.777666   28.824594
H   52.680798   92.350082   48.976936
H   72.144135   93.395325   51.129837
H   39.337078   42.073303   67.800804
H   16.019215   54.679279    2.705085
H   79.320602   86.475975   71.647774
H   56.496349   44.921707   66.255348
H    5.662682   34.002552   52.562630
H   26.778767    3.957846   47.175888
H   43.177570    5.172180    4.142474
H   38.937431   17.314161   58.229950
H    8.665984   49.904541   23.453218
H   65.276909   28.708038   44.111961
H   57.736115   80.214851   41.267406
H   99.585861    7.473018   28.849014
H    1.249339   50.727425   13.553684
H   67.818497   22.548147   89.634262
H   69.709145   42.046036   42.140121
H   41.541981   97.576706   26.774300
H   63.182281   54.836979   39.292160
H   28.163248   83.161972   77.672501
H    0.678650   78.988937    3.565755
H   73.403175   67.970718   96.518997
H   23.278547   76.598083   43.596836
H    5.798519    3.104034   30.647192
H    1.572513   14.691966   99.336533
H   48.037148   92.682938   96.196220
H   96.680649    4.098541   58.496368
H   27.857519   90.121582   91.602539
H   69.261482   68.059525    4.435415
H   77.277679   91.857071    8.860251
H   93.304703   80.334236   38.394958
H   24.299809   44.930264   17.300213
H   94.129402   35.498539   66.104462
H   39.393814   15.912283   72.209305
H    3.762158    9.560448   76.133598
H   58.009853   36.140781   80.133751
H   92.218498   39.387302   71.362038
H   63.584656   46.936825    6.449314
H    5.015803   79.053665   67.531120
H    2.299676   75.647049   84.484398
H   22.180788   87.576233   88.119034
H   81.138565   23.846849   24.006683
H   18.073339   47.954758   81.379967
H   40.567303   85.770805   75.873596
H   88.470528   53.554031   52.950607
H   33.395172   20.114267   45.710968
H   55.525742   26.303133   88.843025
H   40.981670   11.336868   96.199844
H   20.908653   33.212284   35.061321
H   34.264179   57.312347   25.197737
H   93.848045   71.874901   91.046555
H   12.228705    5.054901   51.198917
H   73.411430   18.789200   26.637367
H   91.290436    5.750943   18.954781
H   80.727959   43.773983   60.503967
H   24.525023   57.200470   79.048912
H   79.528229   57.588627   42.065727
H   38.040371   55.173565   34.281338
