100
TIME:    5.079, STEP:  5079
H   73.850502   56.251137   94.496048
H   60.205482   80.087753   98.352356
H   67.059402   39.307144   63.728359
H   82.329102   23.395924   61.767273
H   49.678909   79.861755   27.991562
H   49.262409   95.705635   81.736839
H   86.779747    4.295127   87.637421
H   20.686913   28.000080   41.857311
H   28.776421   97.968140   80.382423
H   36.043678   89.310280    6.576319
H   27.818817   70.607178   50.514072
H   61.991882   78.274757   31.399744
H   19.965500   54.453362   20.346924
H    3.599532   89.420967   43.754753
H   42.279716   16.350798    6.628619
H   97.307541   67.501114   11.439528
H   15.684296   17.907742   35.749756
H    9.678906   47.690403   23.461340
H   24.375561   91.422745   30.943491
H   55.677856   97.957314   62.134560
H   62.881660   50.587440   19.391857
H   49.309021   50.826431   86.754532
H   17.932060   53.315041   87.033508
H   47.145985   97.587860   29.862019
H   47.929474   83.369568   74.049416
H   23.393373   76.510391   12.812143
H   24.110655   31.348454    0.740092
H    3.991067   93.510269   34.657303
H   21.609352    9.898815   17.085136
H   95.745331   65.134422   87.154823
H   15.945325   77.498871    7.544624
H   86.448463   12.186236   29.075554
H   28.114845   96.878990   55.353386
H   92.700851    8.262704   57.780739
H   54.521393   74.986588   34.003685
H   14.146554   83.237526    3.458822
H   66.940338   18.531784    8.670630
H   54.066219   66.008293   80.852165
H   30.686207   70.754570   52.119278
H   84.808205   36.704231   37.639431
H   88.138397   30.456060   62.004742
H   75.148888   39.806145   41.413677
H   54.989239   93.957199   68.334358
H   55.031254   97.893616   77.333420
H   16.090437   31.500275   90.733910
H   12.561155   59.790974    3.794514
H   81.414352    1.050497   74.219978
H   56.510662   47.682022   82.837685
H   13.495918   11.807575   41.871010
H   32.399586    8.036978   28.432327
H   43.157124   79.298645    6.967707
H   51.962029   92.445999   40.635498
H   14.224952   51.458496    7.888109
H   59.070892   24.334473   55.938377
H   36.397858    3.703748   43.547222
H   99.921188    7.191108   19.725662
H   18.239006   42.994453   39.042686
H   47.862442   97.238457   82.731430
H   90.847023   53.369461   21.565048
H   23.857563   18.176510   19.151741
H   80.087677   42.374668   18.397598
H   18.652430   80.667465   65.547562
H   18.873240   60.701340   85.188171
H   91.805275   69.430618   89.244034
H   33.916168   55.193554   68.554176
H   89.335106   89.781029   46.493446
H   80.070618   23.957352   12.276104
H   29.524635    8.010276    9.008170
H   10.037756   84.841789   41.687073
H   33.286919    3.600446   91.038208
H   60.751534   49.825089    1.220320
H   55.179619   82.962723   28.482002
H   75.830887   67.076546   31.522797
H   18.400913   27.969418    1.377179
H    7.051069   35.880894   86.420380
H   45.730270   33.088661   54.176365
H   28.094889   86.332466   80.873161
H   70.600983   18.616631   94.933128
H    5.070681   38.600101   74.351357
H   50.441467   32.339870   83.360901
H   10.260036   81.826248   83.549126
H   22.408745   77.397293   62.074730
H   39.133209   92.058167   13.641524
H   99.577469   46.780319   99.529541
H    5.023555   31.190445   55.400291
H   34.398510   95.613884   94.484253
H    6.369665   34.068253   65.729843
H   37.709442   98.658035   42.924072
H   61.087265   11.381939   86.651131
H   17.286535    0.309923    5.780426
H   31.876305   47.682468   40.720989
H   54.093464   77.468781   30.303297
H   11.027112   79.917274   11.771442
H   38.132652   21.311159   69.268333
H   68.778191   94.783165   32.795048
H   13.426208   95.168060    5.111910
H   59.455132   59.154049   45.091187
H   25.508512   59.482330   74.759178
H   66.761261   58.743870   19.617210
H   54.686092   48.297314    8.463975
