100
TIME:    6.291, STEP:  6291
H   91.888016   45.105370   93.386429
H   26.732700   45.764729   74.774025
H   87.901749   26.503334   49.497494
H   82.532532   73.460907   95.331177
H   38.823135   77.008820   95.131210
H   30.463612   94.392586    1.764714
H   23.259346   86.136009   82.417473
H   25.426102   32.853306   30.575077
H   98.983086   81.439331    4.090175
H    2.930151    6.713285   54.035831
H   15.081528   19.374334   33.768791
H   15.730011   39.025806   45.128456
H   42.625076   81.160988   99.916191
H   43.587791   85.685249   35.988209
H   57.016487    8.089691   48.367756
H   48.576767   61.495155   10.832856
H   18.222450   98.072411   46.082893
H   35.597195   88.719131   81.446327
H   43.250202   42.269302   94.797287
H   23.027313   72.214149   44.653130
H   90.959869   29.928417   86.494392
H   65.504639   52.435379   83.541534
H    1.748449   43.457924   52.357910
H   34.533138   12.086885   39.849079
H    4.582669   87.251892   83.000343
H   17.868395   40.682167   98.840324
H   19.598564   80.968277   24.789968
H    1.726031   50.082314   74.721329
H   47.962807   19.860752   59.793030
H   42.217442   35.137718   83.505295
H   63.648148   86.181648   11.655037
H   62.974827   78.697037   16.874641
H   13.486313    8.203169   64.539917
H   43.911949   97.190201    6.722026
H   24.390671   83.353096    7.799633
H   19.503519   78.166710   99.647316
H   83.187538   74.145142    4.171588
H    3.975152   43.825993   66.378716
H   79.527802   44.345634   34.667290
H   70.650803   23.240696   32.996914
H    5.306782   72.040825   90.558937
H   70.042740   66.273300    1.127121
H   65.427643    1.225646   55.878777
H   77.641510   18.237020   95.836754
H   10.958473   83.681046   94.447739
H   96.920158   82.908035    8.719088
H   90.883102   66.963943   85.852486
H   56.575390   60.165237   57.829350
H   48.920509   11.429893   93.522934
H   57.821827   26.485094   43.665375
H   43.069622   62.288101   19.743832
H   10.864193   79.981934   61.071175
H   39.366909   58.486084   37.497242
H   31.006775    4.556849    9.421218
H   39.896538    9.917729   53.857433
H    1.431192    5.916202   78.466309
H   95.074623    8.022429   54.313927
H   57.614655   82.780022   51.514145
H   86.434708    4.579179   28.522530
H   43.877144   11.334630   84.679588
H   56.541889   86.011002   23.900372
H   75.638039   69.386337   10.705119
H    1.155905   77.996376    2.077698
H   75.032150   76.032852   56.341671
H   82.023941   58.393398   81.422249
H   14.880726   29.528709   18.156858
H   82.829544   65.856018   70.791580
H   45.803429   77.326088   66.948776
H   70.446053   97.755203   65.673553
H   57.837242   64.562920   88.486084
H   22.265072   67.361450   86.683998
H   55.244663   42.739029   17.218987
H   96.805725    7.128899    0.444280
H   91.720863   51.261082   29.363138
H   65.483635   37.610050   78.298355
H   74.382835   10.766434   72.624054
H   38.140224   81.298851    2.313337
H   27.542950   39.367279   61.869751
H   63.187359   35.040073   87.870216
H   91.008865   66.319099   78.945946
H   33.977585   94.364944   55.987202
H   13.369022   85.268921   60.698475
H   15.794183   12.326138   29.066414
H   82.960030   50.493797   88.831627
H   46.010048   55.380562   37.910416
H    6.500898   40.133118   78.649277
H   87.316383   45.945839   23.522635
H   57.205589    1.661150   30.349922
H   86.238632   43.899025   76.738533
H   10.129407   50.448460   49.104118
H   81.476280   13.128162   66.316208
H   43.769192   68.622681   53.392624
H   88.718796   16.279881    5.497264
H   55.267452   94.840889   50.991440
H   47.824883   86.220047   60.646488
H   13.532439   47.306488   42.510712
H   63.252312   28.707296   75.388077
H   26.134241   97.738098   52.588409
H    9.024358   63.968327   18.099602
H   29.969393   17.198036   91.708229
