100
TIME:    7.682, STEP:  7682
H   97.820305   17.544952   92.112930
H   88.318985   21.139736   62.481335
H   11.817492   26.577419   33.164875
H   82.766006   16.152004   19.085712
H   26.361673   88.503517   57.414429
H    8.889298   92.885612   39.520279
H   50.355671   80.063416   91.195557
H   16.096245   53.191769    2.857383
H   64.789650   47.700455   16.531963
H   64.937050   26.687136    8.499794
H   85.694107   75.344589   99.780762
H   62.642960    8.749525   46.115578
H   53.894112   97.005142   61.689899
H   74.714622   81.397804   41.844143
H   73.911568   83.838730   81.474152
H   92.646057   39.833252   95.367462
H    6.366295   90.075745   72.711121
H   65.343521   21.032684   33.229958
H   64.910736    0.620808   68.077972
H   85.550522   42.676647   39.358864
H    8.415939   91.449585   48.739452
H   98.861160   54.281952   65.085022
H   83.176430   32.145012   12.558719
H    5.288992   28.727266   36.541534
H   54.831612   76.939529   93.273232
H   11.386074   99.638107   67.972969
H   99.651077   23.144758   52.393047
H   84.356743   15.009482   20.697935
H   78.208397   46.062916   94.040489
H   95.555801    0.709630   94.085960
H   18.389948   10.915846    1.603679
H   50.803402   40.265163   88.102867
H   11.466265    6.431054   89.852180
H    2.684035   69.713264   48.120361
H   89.771797   78.034843   92.430405
H   40.420521   87.115753   95.274971
H   16.603096   23.204283   13.776755
H   46.480446   18.366634   64.537422
H   20.811710   14.039515   99.869865
H   39.634918   93.019958   42.438461
H   10.241556   19.771582   23.329069
H   52.816856   71.728119   72.138695
H   77.398529    9.569904   56.351429
H   88.822250   41.584496   31.840908
H   90.299202   28.800068   13.479427
H   78.963829    9.437690   14.370237
H    1.751354   42.611885   99.202995
H   56.656490   74.492096   43.896160
H   89.583626   96.227547   38.035881
H   87.025146   47.658390   46.407265
H   42.974110   27.996317   34.405853
H   78.473587   50.906651   69.761322
H   68.220711   66.551575   56.712135
H   98.797485   81.865738   70.801895
H   29.143036   31.818375   65.688843
H    3.163681    4.453005   31.113388
H   83.257172   67.885536   86.609505
H   54.038010   51.417427   15.683993
H   96.136635   63.361233   21.738846
H   52.085114   18.251789   45.116234
H   44.287395   21.323402   15.447442
H   26.268745   56.439102   47.768837
H   95.591225   83.076935    6.692657
H   70.549980   83.610168   18.571827
H   37.234375   47.296131   10.960032
H   29.430031   60.378349    0.403651
H   71.227173   13.949717   37.949810
H   49.717522   56.879326   33.446625
H   39.772415   97.806816   78.431580
H   86.042183   34.491192   85.550201
H   78.093987   72.718842   70.001167
H   40.673328   96.526756   19.134054
H    6.109888   38.329227   64.786194
H   61.094234   63.224339   46.714844
H   32.520111   39.626530   83.756165
H    7.262296   99.916405   79.027718
H   64.472374   60.904945   26.982370
H   92.894653   48.414639   38.688129
H   29.893095   30.954266    3.387449
H   22.792511   90.544121   59.110023
H   61.202858    8.756173   39.125549
H   17.747978   94.289536   44.327885
H    3.777919   35.588291   61.538910
H   78.658119   69.524536   61.784206
H   78.280441   68.364464    3.069327
H   74.491745   91.226593   75.244553
H   80.218193   44.808495   89.850685
H   79.576714   90.352722   15.927551
H   15.107007   66.450768   65.361946
H   87.146790   93.216568   98.831055
H   38.401814   88.237495   95.691574
H   46.689106   73.239273   79.898369
H   77.884552   58.018795   13.065433
H   89.701729   79.230919   44.784206
H   23.775169   61.623863   92.611298
H   28.423325   92.378723   70.663582
H   52.841148    8.533927   95.389549
H   23.449282   66.563164   24.665560
H   42.760185   69.974937    1.588404
H   16.370546   81.500473   57.709644
