100
TIME:    4.875, STEP:  4875
H   87.646400   74.959023   94.682816
H   65.839638   69.034225   85.490295
H   63.551483   24.630714   66.122276
H   82.294861   31.801243   72.948738
H   51.506119   63.510254   33.522430
H   52.426563   95.926643   61.534626
H   97.472191   90.520599   71.684357
H   36.720909   10.351975   60.588543
H   33.791130   17.582153   93.222694
H   41.618690   86.381142   98.587738
H   46.794403   62.398746   70.164062
H   69.777382   68.049232   45.920891
H   32.983200   66.789360   40.617432
H   13.700152   90.049751   28.229700
H   39.798820   34.572418   16.435040
H    5.510195   85.343643   28.373795
H   32.088722    4.415006   17.178831
H    5.316597   57.615543   30.532827
H   21.198177   82.865677   20.196573
H   61.173492    2.289892   48.245277
H   74.987312   70.896332   24.928738
H   29.751343   50.555618    4.126997
H   20.655754   54.974159   92.869995
H   66.101166   95.147430   45.013428
H   55.225861   99.546753   72.542824
H   24.323320   82.539871   31.995508
H   41.702255   39.829197   96.693214
H   21.203762   83.988235   27.913439
H   17.173622   91.390373   26.727791
H   87.922882   70.183372   70.937172
H    7.916265   59.205395   23.684456
H   73.567726   17.822212   47.960869
H   13.745354   11.804316   36.975456
H   84.081528   26.957977   66.375160
H   59.592133   90.407364   21.582085
H   96.413422   67.259560    4.100515
H   47.374641   26.003265   92.596359
H   62.497219   69.740532   66.455498
H   39.297749   75.199638   71.888626
H    4.023294   55.802773   21.588820
H    2.080506   23.456945   57.198589
H   93.483238   30.649981   31.830942
H   53.232067   92.733871   53.599495
H   68.057220   94.469543   57.387161
H   33.785809   39.548401   73.277367
H   15.193411   55.899982    2.965247
H   79.820602   89.956444   72.262032
H   56.499767   45.580887   70.215309
H    7.533348   28.702259   50.009407
H   28.121052    4.931967   42.699814
H   43.172688   98.993286    4.817156
H   42.047783   11.375441   54.028290
H    9.993499   50.275635   19.736177
H   63.794556   27.663605   46.936180
H   52.640411   85.824226   41.811840
H   99.665939    7.405696   26.670303
H    5.306587   48.880745   19.640648
H   63.052872   16.503958   87.985825
H   74.756996   44.750137   37.226547
H   37.318836    2.495875   24.953987
H   67.219391   51.860905   34.302414
H   25.892008   82.566269   74.776993
H    5.023644   74.621750   99.177063
H   77.797707   68.319351   94.781693
H   25.818830   71.486755   49.556797
H    1.867106   99.922508   34.431374
H   96.437683   16.904541    2.426543
H   43.616249   96.343094   99.255791
H   99.870102   99.499931   54.482208
H   29.154150   93.340332   91.467773
H   67.229256   63.705032    3.667640
H   72.000336   89.733047   13.546042
H   89.131851   77.168221   36.753845
H   22.891117   40.879971   13.497723
H   97.215340   35.589848   70.956024
H   40.906998   20.014090   67.902664
H    9.572992    4.013329   77.265434
H   61.016689   31.955727   83.667931
H   95.287834   39.199314   72.075905
H   60.445984   43.450985    0.935717
H    6.268184   79.715775   71.356316
H    7.101811   76.065018   79.132835
H   26.229128   88.646545   94.213760
H   85.541885   29.323656   18.161469
H   14.956925   43.951340   75.175865
H   39.094158   88.121391   80.317932
H   92.744942   48.900711   56.002365
H   34.425446   14.990463   45.045441
H   56.853867   22.739901   88.319588
H   35.322979    8.703568   98.487930
H   23.527794   36.667850   36.412884
H   38.999531   62.125824   26.416975
H   97.950584   73.795799   95.995773
H   18.414665    8.937028   55.513859
H   72.304985   13.056290   28.107826
H   96.576569    3.223773   15.649103
H   75.647881   47.446835   56.823303
H   24.759886   57.745392   78.024498
H   76.479401   57.864506   36.704887
H   42.015469   53.531475   28.115965
