100
TIME:    2.196, STEP:  2196
H   68.815826   20.636826   97.135513
H   40.184547   23.807989   16.522909
H   17.502081   31.892506   97.557686
H   81.845200   42.175621   19.792542
H   75.501678   48.776600    6.162725
H   93.964607   98.829002   96.222679
H   37.878078    9.621288   62.182915
H   47.285027   78.583496    6.563925
H   99.646065   75.156906   61.858006
H   14.829645   47.914665   93.681725
H   95.988464   54.603291   28.219969
H   72.026764   33.764633   36.614876
H    3.575459   28.846489    6.864815
H   46.348289   98.307167   24.356480
H    7.211106   73.871735   45.213127
H   13.228062   19.659065   50.754654
H   47.512329   27.221992   73.293610
H   48.072159   87.909035   23.414383
H   79.467094   70.479782   79.055786
H   33.354309   59.177380   65.846535
H   33.962875   37.598866   97.641235
H   72.913010   46.999207   32.268570
H   56.424263   76.762291   69.520004
H   15.009361   63.019291   43.980484
H   51.041985   12.011665   52.764359
H   36.589741   62.172573   83.340736
H   72.716011   51.193157   43.543568
H   47.249458   58.941570   39.359844
H   58.920731   48.330086   53.365868
H   85.198158   36.489182   57.964169
H    2.486444   18.972525   35.642262
H    4.414030   91.840050   95.969368
H   25.040558    7.812806   95.629974
H   70.887352   72.472488   79.237381
H   26.185913   92.919250   58.448196
H   63.488232   56.992413   13.090791
H   90.424042   24.114267   81.501587
H   73.225151   18.761044   77.406563
H   52.380463   33.568237   31.503111
H   56.354084    6.600663   10.810480
H   85.168846   31.533857   94.081345
H   34.257233   10.414498    5.971675
H   30.156271   76.668701   60.091682
H   39.129280   49.576408   95.447433
H   66.167809   45.246929   44.029030
H   49.756130    4.802113   92.087013
H   58.885929   44.264069   46.535713
H   56.356693   17.993227    4.453965
H   29.221342   50.575970   56.876488
H   71.944054   64.173836   30.073490
H   43.377079   57.633995   76.571121
H   11.854506   59.967564   29.898609
H   54.433350   34.741882   75.330315
H   25.839230   71.379494   28.719187
H   65.937775   51.018612   19.040113
H   96.313919   10.224058   17.869781
H   35.468410   26.182594   64.845314
H   62.538177   69.502457   56.992020
H   63.469482   31.555758   42.895363
H   14.106119   96.578979    1.151064
H   98.225601   76.446846   43.177876
H   20.972012    7.503553   95.991394
H   23.185734   57.402687   82.903976
H   93.834534   53.740189   67.522163
H   19.484367   85.453308    0.070007
H   66.441505   33.103279   76.030006
H   11.379190   24.284765   73.085037
H   28.673180   43.129211   71.184097
H   66.352287   91.995781   22.502769
H   74.873352   58.596909   97.108978
H   52.299873   45.984077   35.809078
H   92.897156   78.644043   17.402128
H   63.808380    9.684292    5.439045
H   81.862846   10.411786   72.693748
H   68.047997   31.768347   67.869614
H   77.574364   48.316238   48.166126
H   66.338470   36.212135   29.887030
H   35.152401    7.129147   35.717083
H   66.817017   47.068386   42.178955
H   91.829292   89.355255   31.733742
H   53.856136   52.000286   11.238770
H    6.090904   58.569107    3.148910
H   56.743893   43.910767   39.057957
H    1.234252    0.076149   62.849518
H   45.402863   11.522362   34.874786
H    0.747108   89.717323   94.280037
H   13.820608   43.685837   28.257170
H   91.306427   29.477325   72.910530
H    1.254762   71.902489   10.233622
H   72.183243   18.925217    2.720620
H   13.892029   92.009476   79.837234
H   40.770451   60.664021   75.364861
H   26.183212   93.432968   88.803482
H   59.480396   46.436810   74.882790
H   18.623791   53.026039   66.548454
H   75.302170    9.014084   54.022736
H   88.294449   93.704597   10.895460
H   14.928100   34.935303   20.898964
H    4.101116   46.316387   61.100929
H   75.620346   22.296909   86.179352
