100
TIME:    6.907, STEP:  6907
H   50.229813   88.615974   92.822464
H    9.722111   79.144615   13.613315
H   98.494888   70.821281   42.264645
H   82.635925   48.082489   61.568142
H   33.305679   26.383848   78.428452
H   20.909107   93.725227   62.770458
H   90.974487   27.731205   30.589548
H   77.009712   86.145233   74.016594
H   83.840630   22.213623   65.317223
H   86.104805   15.559223   78.154732
H   57.782715   44.160587   74.431709
H   92.218964   69.902878    1.281763
H    3.316727   43.908573   38.707207
H   13.088037   83.786568   82.865898
H   64.498421   53.065544   18.745502
H   23.808533    7.617531   59.699707
H   68.687233   38.814838    2.159804
H   48.770473   58.744400   60.091721
H   52.842304   68.112244   27.249630
H    6.432648   59.131916   86.593315
H   54.405548   68.604401   69.772835
H   24.561157   53.253128   31.083405
H   93.523796   38.448036   34.734009
H   77.298561   19.456026   94.099365
H   82.550728   38.400673   87.549660
H   15.040173   22.482166   40.903534
H   66.481590   55.362686   37.013905
H   49.748680   78.835121   95.080460
H   61.356972   75.749153   30.673754
H   65.838165   19.891869   32.474785
H   87.889305   41.419571   62.919151
H    1.869564   61.675343   59.848473
H   56.877773   63.133308   20.034063
H   69.938927   40.737320   80.770737
H    9.059694   36.713203   45.279541
H   73.051430   26.414875   97.711037
H   42.270088   51.586548   52.709873
H   78.512657   32.551395    9.850051
H   53.527126   30.923460   74.972809
H   12.631596   65.574020   81.463303
H   63.207031   93.180107    5.071287
H   18.129776   68.688950   32.575062
H   70.728912    4.920980    0.374720
H   38.308033   28.576376   56.064819
H   57.523865   59.375057   47.161076
H   88.968254   94.657303   11.221682
H   95.695602    0.463480   91.764717
H   56.609188   66.509842   95.943970
H   66.925850   60.411198   68.952866
H   70.753174   35.862392    0.593954
H   43.027325    2.816900   26.236477
H   40.807484   22.820709   20.634895
H   52.145412   62.057861    1.720344
H   16.743164   94.507263   36.602371
H   90.848953   63.902435   59.097607
H    2.198419    5.268229   57.496216
H   34.125561   90.247673   12.900717
H   11.746444   24.606749   35.647934
H   35.017273   30.610340   81.233757
H    3.229008   58.684177   67.159081
H   95.399071   57.362679   75.871323
H   53.775002   63.652695   82.834366
H   42.976940   35.962196   59.836731
H   17.330585   79.388443   39.615414
H    6.472592    9.193256   38.788181
H   77.039581   98.906029   54.579590
H   33.407425   87.155090    0.531362
H    3.251928   12.555827   96.397141
H    1.144679   53.493362   27.037464
H   70.317345   95.543388   87.188965
H    2.703201   25.449463   79.296059
H    4.474067   22.283928   62.330376
H   56.642029   76.659836   84.653137
H   78.157509   12.275822   92.763580
H   95.185783   38.488895   24.995804
H   88.942528   50.247410   31.176313
H   94.085541   27.982197   13.238111
H   56.483746   99.087975   95.886528
H   92.729591   33.230686   94.741188
H   60.799149   32.763191   25.876854
H   46.032333    0.737917   92.804703
H   59.591522   89.263672    9.165146
H   54.759453   22.627478   87.730957
H   25.340576    3.205788   32.569363
H   16.015806   16.847664   78.196236
H   92.324692   62.762207   21.426422
H   28.457705    1.157315   52.895805
H   67.112572   52.369434   23.963020
H   99.021835    9.601879   71.700447
H   55.667843   25.102940   71.123764
H    6.685627   46.389320   79.324997
H   89.346954   14.951921   65.128242
H   28.205372   34.763828   53.133492
H   14.801850   32.212486   92.527451
H   37.175346   31.042679   74.802002
H   64.411469   22.981676   10.693499
H   14.357368   64.058273   39.961685
H   24.945215   28.218098   40.223480
H   79.679588   66.628304   66.504585
H   68.230232    1.390812   32.367222
