100
TIME:    1.500, STEP:  1500
H   15.883635   84.463730   97.772720
H   59.545021   86.072899   72.619804
H    5.538383   81.820320    5.727313
H   81.728378   70.849937   57.944462
H   81.735687   92.989143   25.033043
H    4.756018   99.583031   27.295473
H   74.354378   62.626194    7.754811
H    1.989258   18.371456   70.469749
H   16.755135   42.074570    5.666764
H   33.847878   37.921135   66.430504
H   60.728683   26.598042   95.262085
H   98.587677   98.878151   86.157722
H   47.846817   70.955254   76.040672
H   80.810570    0.452542   71.391533
H   98.745033   36.040447   78.669479
H   41.213013   80.535576    8.527989
H    3.469749   81.194382    9.927104
H   33.198685   21.755859   47.544235
H   68.623955   41.280945   42.387653
H   52.104126   73.958847   18.459574
H   75.264511    6.887020   16.532082
H    6.177604   46.079765   91.532509
H   65.716866   82.422813   89.432724
H   79.675255   54.671879   95.670654
H   75.935539   67.210030   47.629532
H   39.781086   82.913193   48.577202
H   32.731789   80.124710   29.732107
H    5.976715   26.454632   16.354017
H   43.787064   85.183899   86.266991
H   58.509808   53.715012    2.634709
H   75.107491   56.557312   90.715454
H   60.468082   11.070514   60.401558
H   76.016312   58.735008   32.928802
H   41.480247   36.256599    8.558998
H   43.486977   45.531715   16.068619
H    2.973537    2.316120   15.482972
H   23.668865   49.603371   26.659307
H    1.994761   31.499874   28.292385
H   83.286362   48.487419   98.358429
H   21.910540   71.758919   56.051853
H   32.732697    7.651879   77.683884
H   96.809723   79.179237   73.272659
H   24.161215   72.494995    9.820350
H   83.574471   37.910210   27.396399
H   26.541988   72.706924   84.468948
H   58.735439   91.526985   89.262062
H   51.918690    6.656323   40.440620
H   56.319523   10.827303   61.389431
H    8.878507    8.220032   84.638840
H   57.349590   53.580357   78.752403
H   43.430180   24.828444   69.232620
H   78.030357   24.549917   75.590317
H   39.995300   30.706238   15.751541
H   41.955257   82.732399   98.008255
H   21.344620   90.002914   13.134684
H   95.443069   10.955519   41.563263
H   91.345612   46.265236   98.649818
H   14.364067   35.231529   74.918777
H    8.579407    2.146601   96.327271
H   60.032871   43.083370   20.946007
H   54.322033    8.815875   97.444633
H   45.673218   13.983152   27.484169
H   75.977585    4.864195   30.652443
H   46.042007   49.954117   86.415352
H   91.859428   41.041683   35.253078
H    9.197912   67.703621   34.877056
H   67.220749    0.222901   39.482983
H   76.750450    3.323174   37.911274
H   31.662033   42.005890   66.156502
H   60.771049   23.588331   98.574554
H   74.400337   93.340370   44.157291
H   50.284733    1.742901   66.445824
H    9.188591   44.109402   23.286152
H   97.177055   54.457588   14.059135
H   34.493095   30.778021   15.108017
H   61.122875    3.708056   94.999046
H    3.144826   96.536850   17.575659
H    2.453059   52.640221   97.278397
H   33.451843   49.108250   34.414818
H   25.962814   27.260389   91.694923
H   40.235836   44.799847   69.640160
H   53.870296   54.023697   61.348465
H   12.707576   32.292358   72.767487
H   53.357471   40.518536   26.421547
H   79.291656   55.059395    2.344354
H   16.767254   64.154701   45.947884
H   67.336327   94.290695   95.068787
H   80.102203   85.201080   80.150948
H   86.811226   10.654897   15.927332
H   33.718056   47.562363   77.838081
H   85.408699   54.426235   65.138992
H   89.271767    8.320562   62.101097
H   81.527153   72.575058   34.959488
H   92.208138    4.218223   27.956345
H   30.659039   15.368294   50.554558
H   17.815475   36.497063   89.971832
H   43.539139   53.762341   50.922852
H   12.372634   29.009277   32.036804
H   37.255363   43.316204   19.403423
H   32.396469   40.174435   53.214546
