100
TIME:    2.176, STEP:  2176
H   70.168365   22.470932   97.153824
H   40.740883   22.723623   15.261335
H   17.158300   30.453678   97.792366
H   81.841843   42.999596   20.888809
H   75.680817   47.173512    6.704985
H   94.274666   98.850670   94.242088
H   38.926205    8.270771   60.618889
H   48.856987   76.853149    8.400282
H    0.137703   77.079819   63.117008
H   15.376139   47.627495   92.898643
H   97.848816   53.798542   30.146467
H   72.790009   32.762131   38.038521
H    4.847642   30.056511    8.852627
H   47.338585   98.368813   22.834415
H    6.967824   75.658234   46.174583
H   14.032276   21.408333   52.414810
H   49.120300   25.899361   71.472626
H   47.644760   88.881630   24.107819
H   79.155510   69.640854   78.002014
H   33.893097   59.602032   64.484840
H   35.149704   39.589985   98.184143
H   70.995590   46.972656   33.971756
H   56.691292   76.924950   70.092209
H   16.867577   62.779423   45.465927
H   51.757317   13.597816   52.616806
H   36.681446   62.768429   85.215431
H   74.440559   52.024609   43.146687
H   48.936928   58.008038   38.698681
H   58.485855   46.515511   54.311302
H   84.431252   36.984177   56.374203
H    1.699607   17.178930   37.224751
H    3.151237   92.392723   97.820869
H   23.631790    9.276051   93.828217
H   70.042320   74.305374   80.079971
H   26.683121   94.431091   57.230392
H   61.749340   55.421215   13.159532
H   88.505707   24.846766   79.925659
H   74.051872   19.127102   75.995125
H   53.224731   34.004028   33.441261
H   58.237782    8.473031    9.236917
H   86.535728   30.847593   93.610153
H   36.054718    9.516862    5.032096
H   29.983999   76.548767   58.647133
H   40.406441   49.241173   93.491867
H   67.902733   46.035961   42.317490
H   50.014156    4.420643   92.005836
H   58.729527   43.176422   46.343605
H   56.355625   17.787310    3.216490
H   28.636778   52.232311   57.674370
H   71.524742   63.869511   31.472263
H   43.378605   59.564842   76.360245
H   10.882597   61.823490   31.211628
H   54.018463   34.625916   76.491814
H   26.302334   71.705727   27.836695
H   67.529877   49.265224   18.870436
H   96.288895   10.245077   18.550629
H   34.200558   26.759682   62.943153
H   64.027435   71.391190   57.507156
H   61.892181   30.710649   44.430855
H   15.425890   95.041809    1.719878
H   96.964005   77.377022   44.737171
H   21.681774    7.689749   96.896240
H   21.829151   58.766518   84.276047
H   92.461243   53.631393   68.065071
H   18.690529   87.050598   98.207520
H   67.670143   34.097542   74.847450
H   12.983881   23.593313   72.119461
H   30.054710   41.985413   70.227982
H   65.355583   93.432854   23.757195
H   74.468079   57.590897   97.151093
H   52.934944   47.344856   36.049099
H   94.546326   79.307800   15.937819
H   65.112396   10.673519    5.951893
H   82.302910   11.677464   73.882408
H   67.083641   31.739889   66.353500
H   77.101646   47.034348   49.511799
H   64.522675   37.945686   29.533255
H   34.212765    8.436914   34.612499
H   65.857849   47.127132   41.955719
H   92.810127   90.444427   33.456764
H   53.464748   51.793377   10.043434
H    4.590240   58.438492    4.821344
H   55.478481   43.576904   37.153049
H   99.858406   98.364723   64.676300
H   46.376678   12.773392   36.813568
H    1.207447   88.982765   92.891182
H   12.484854   45.139999   27.303495
H   90.984467   31.078583   73.118660
H    0.839664   73.016075   10.397234
H   73.951431   19.748123    2.005698
H   13.073547   90.929459   79.414871
H   39.290501   59.159962   74.983696
H   24.900024   92.833603   87.256241
H   57.547260   45.223583   73.534218
H   18.969631   54.817574   66.088860
H   73.650253    9.803841   55.055756
H   89.881973   92.556831   12.045706
H   14.854667   34.765015   21.219017
H    5.053837   46.230175   62.776192
H   74.378281   22.810596   88.105621
