100
TIME:    1.831, STEP:  1831
H   93.499664   54.109268   97.469681
H   50.337669    4.018243   93.499229
H   11.228086    5.633902    1.841465
H   81.783936   57.213158   39.799969
H   78.770950   19.520237   16.058952
H   99.623177   99.224434   60.076595
H   57.006382   84.975517   33.639442
H   75.973305   47.006168   40.077942
H    8.618523   10.250252   84.832283
H   24.803152   42.673805   79.390495
H   29.939865   39.916630   63.377323
H   85.955978   15.468987   62.596397
H   26.792831   50.929390   43.142281
H   64.421181   99.432198   96.579170
H    2.771155    6.475135   62.759705
H   27.904526   51.584114   81.052505
H   76.857803    3.083955   40.062660
H   40.272133    5.659049   36.069138
H   73.780678   55.167732   59.825054
H   43.187187   66.928329   40.995613
H   55.622498   73.936035    7.548222
H   37.916142   46.516647   63.349770
H   61.297539   79.730812   79.962738
H   48.921791   58.641697   71.089096
H   64.096794   40.958923   50.071526
H   38.263363   73.049255   17.552938
H    4.189220   66.366714   36.300488
H   78.047043   41.904598   27.295008
H   50.984253   15.214780   70.620049
H   71.202110   45.522842   28.947437
H   88.128090   86.240036   64.522736
H   81.367706    1.925874   29.759209
H   99.330154   34.517097   62.747894
H   55.465523    5.922550   94.614655
H   35.259453   20.510750   36.223274
H   31.753448   28.318235   14.345311
H   55.415115   37.481789   52.740910
H   88.312813   25.441608   51.649158
H   68.407120   41.421547   66.635239
H   90.733727   40.771229   82.093826
H   10.113319   19.009539   85.482101
H   67.061340   94.033226   88.823639
H   27.012312   74.479904   33.728653
H   62.437462   43.458359   59.758678
H   97.830177   59.646763   12.793619
H   54.465107   97.840309   90.605537
H   55.413746   24.512621   43.268990
H   56.337200   14.235235   81.869850
H   18.553045   80.805748   71.436417
H   64.291618   58.618389   55.601101
H   43.404926   92.871956   72.722626
H   94.116707   93.835770   53.861202
H   46.861671   32.625488   96.527672
H   34.290882   77.333244   12.613707
H   94.993637   19.019857   15.943481
H   95.857224   10.607655   30.295242
H   12.329985   36.714439   30.130880
H   89.717133    3.971954   66.393265
H   34.683739   16.132536   70.917404
H   38.191296   68.525620   11.531878
H   75.201462   93.422554   71.635765
H   33.925385   10.901619   12.506587
H   98.427765   82.292595    7.944455
H   68.771973   51.754677   77.430229
H    4.996742   14.604806   66.079605
H   88.864143   51.248573   54.448360
H   40.664383   11.666005   55.463268
H   53.886116   22.254234   53.734989
H   48.160011   18.222336   45.396027
H   67.477112   40.237190   97.877563
H   63.889915   70.819481   40.187473
H   22.993078   90.757614   90.678886
H   87.606674   27.737690   14.798519
H   89.894005   33.509979   94.386787
H   50.450653   31.248995   40.200542
H   68.947273   24.922152   72.725639
H   33.197609   67.849106   23.430635
H   18.004040   30.995680   15.558444
H   49.318489   48.138523   38.106850
H    9.729752    9.233324   63.178902
H   46.713306   48.224194   89.423592
H   78.705414   56.185379   33.670853
H   33.650135   37.817780    4.293634
H   76.127022   68.842628   96.188293
H   63.175003   34.354218   70.257553
H    9.148335   76.311638   68.933434
H   89.443062   70.224304   10.852407
H   85.430649   58.700272   76.708900
H   93.680122   92.225441   13.219547
H    4.452951   33.943260   89.671776
H   98.954567   72.299164   72.129105
H   13.762686   33.214062   68.408607
H    2.765024   82.494553   60.566330
H   24.200665   24.295916   50.272911
H   24.935379   85.719696   58.160851
H   45.154694   23.426786   72.875351
H   17.266319   72.757866   31.886917
H   13.587949   31.827545   26.739933
H   21.488049   44.743015   91.676987
H   52.952652   31.671700   21.334362
