100
TIME:    5.026, STEP:  5026
H   77.434731   61.111519   94.544571
H   61.669258   77.216003   95.010742
H   66.147980   35.494049   64.350441
H   82.320206   25.579659   64.672493
H   50.153625   75.613571   29.428448
H   50.084469   95.763054   76.488274
H   89.557686    0.716206   83.492752
H   24.852608   23.415066   46.723759
H   30.079262    3.063910   83.718376
H   37.492088   88.549278    4.500800
H   32.748749   68.474594   55.619091
H   64.014885   75.618126   35.172371
H   23.347549   57.658302   25.613281
H    6.223710   89.584328   39.721283
H   41.635170   21.084818    9.176350
H   99.438507   72.136673   15.839043
H   19.946236   14.402316   30.924955
H    8.545592   50.268993   25.298540
H   23.550064   89.199585   28.151400
H   57.105644   99.083046   58.526070
H   66.026756   55.863907   20.830360
H   44.227859   50.756073   91.267975
H   18.639687   53.746086   88.549850
H   52.070660   96.953827   33.798332
H   49.825104   87.572464   73.657997
H   23.634977   78.076874   17.796057
H   28.680910   33.551739   99.688515
H    8.462962   91.036407   32.905220
H   20.456932    5.090292   19.590336
H   93.713028   66.446159   82.941414
H   13.859344   72.746048   11.737816
H   83.101997   13.650517   33.982033
H   24.381611    0.756751   50.578728
H   90.461517   13.119750   60.013603
H   55.838791   78.992966   30.776505
H    9.539502   79.086388    3.625519
H   61.856918   20.472904    4.494523
H   56.256626   66.977943   77.111855
H   32.923519   71.909416   57.255432
H   89.800407   41.666107   33.469288
H   91.760635   28.637663   60.756084
H   79.912224   37.427307   38.924046
H   54.532719   93.639374   64.505898
H   58.415325   97.004028   72.151169
H   20.687784   33.591209   86.198631
H   13.245026   58.780079    3.579067
H   81.000290   98.168175   73.711296
H   56.507832   47.136139   79.558342
H   11.946823   16.196880   43.985397
H   31.288006    7.230284   32.139076
H   43.161167   84.415390    6.408986
H   49.386269   97.363800   44.114998
H   13.125604   51.151184   10.966284
H   60.298119   25.199394   53.599571
H   40.617737   99.058846   43.096363
H   99.854874    7.246859   21.529907
H   14.879163   44.523735   34.001961
H   51.808975    2.243669   84.096542
H   86.666771   51.130127   25.633900
H   27.354855   14.102605   20.659187
H   76.744446   44.839230   22.529732
H   20.533300   81.160782   67.945404
H   15.275060   64.317917   88.822540
H   88.166054   69.141907   90.682739
H   31.812311   59.426777   63.618580
H   92.590996   92.415825   43.359673
H   84.322845   22.125004    9.717125
H   33.185692    4.979057    6.474463
H    7.396175   88.650032   45.011299
H   32.213348    0.934660   91.149811
H   62.434471   53.431152    1.856134
H   59.549515   84.721680   24.601582
H   79.286530   69.698402   32.881844
H   19.567486   31.323769    4.526166
H    4.495780   35.805279   82.402679
H   44.477165   29.691790   57.742397
H   23.282827   90.925972   79.935860
H   68.110947   22.082180   92.006386
H    2.529226   38.755779   73.760185
H   53.040680   35.226582   87.926910
H    9.222960   81.277939   80.381386
H   18.431885   77.051163   66.506493
H   35.780678   91.171814    8.594026
H   95.930969   42.245041    4.370210
H    7.604319   34.505775   60.538063
H   35.618458   93.667305   90.803787
H    2.829907   37.921783   63.202606
H   36.856247    2.901265   43.475212
H   59.987411   14.332842   87.084602
H   21.972437    2.490623    3.885857
H   29.707329   44.820827   39.601727
H   50.172001   73.482620   29.293615
H    7.629792   78.327339    7.672871
H   33.009842   18.096312   65.694618
H   69.694466   99.530327   31.577190
H    9.048629   97.261017    7.849514
H   63.662071   56.112469   48.139236
H   25.314016   59.031067   75.607521
H   69.286072   58.515408   24.056656
H   51.394215   49.657169   13.569701
