100
TIME:    8.992, STEP:  8992
H    9.230090   97.412544   90.913589
H   52.138870   92.126755   45.079731
H   34.335117   20.824253   17.787949
H   82.985886   62.180168   47.281067
H   14.623125   93.505707   21.895374
H   88.577148   91.466393   69.254578
H   81.698845   68.521996   93.639275
H   13.132828   66.523178   82.578316
H   32.587349   21.748249   34.072559
H   29.156317   45.496799   59.793892
H   63.841095   28.053871   73.593864
H   12.640442   74.413155   52.868446
H   70.359634   17.714561   31.507496
H    9.851743   77.360023   41.535717
H   89.822823   66.823067   18.476006
H   39.975006   25.255882   86.626038
H    1.023765   76.721092   91.965584
H   93.352737   57.288200   87.819412
H   85.319519   55.580441   37.094776
H   50.253819   14.858854   28.549738
H   30.678688   61.036179   13.186346
H   24.452143   56.020996   53.526413
H   65.686043   21.495798   75.078476
H   83.571686   44.398651   39.250034
H    7.979499   73.050461    2.946518
H    5.208237   61.019333   44.694996
H   86.688896   68.691971   78.383224
H   73.822205   76.155869   64.002831
H    6.693116   64.916557   32.114525
H   45.785759   68.287399   98.227264
H   69.949135   28.386074   97.960678
H   33.517567    4.074366   66.829597
H    3.740551   10.585110    7.867329
H   58.035660   49.659515   92.933449
H   57.169716   78.849434   72.134216
H   54.296528   89.724060   91.157234
H   42.248711   75.228279   16.999594
H   92.336540   94.393715   56.980560
H   65.518913   85.497643   72.920883
H   16.247904   70.383125   45.506767
H   20.711859   64.717041   54.192104
H   42.417175   76.865295   39.018375
H   88.672333   17.428539   50.973660
H    5.175782   63.579681   59.923359
H   76.665894   77.122856   25.581415
H   62.054276   34.419445   19.692312
H   11.992703   13.853731   11.783073
H   56.736446   87.984680   24.951145
H   27.875549   87.733009   85.779663
H   14.526064   67.599236   54.812954
H   42.884159    1.523523   48.218262
H   42.140636   29.347786   83.767097
H   95.385780   74.147400   80.631851
H   68.454163   60.495842   28.607662
H   24.838715   46.621078   76.822723
H    4.795284    3.075012   86.517883
H   66.304276   30.086311   11.201539
H   56.492859   27.704027   81.941307
H   99.458366   18.712793   21.169317
H   65.638191   18.942791    7.856712
H   26.923132   60.399883   13.309622
H   79.774254   44.245804   88.495415
H   84.527832   93.684715   16.862030
H   60.505596   90.746246   83.007004
H   89.230942   42.668034   32.954899
H   48.956062   95.254753   77.861580
H   66.123489   59.236706    1.195133
H   59.226822   31.800167   96.072205
H    5.060887    3.678553   96.269409
H   12.647841    0.290513   82.771729
H   36.490238   83.583809   54.289803
H   32.798149   53.030663   15.156177
H   20.696671   73.528435   31.194759
H   32.260082   80.315712   68.879555
H   95.625427   41.555470   83.081192
H   38.234596   83.876091   90.881973
H   83.448074   47.520519   50.218521
H   54.434101   62.761711   11.043471
H   92.713142   27.106380   18.007257
H   58.549095   19.182444   46.252342
H   86.848763   22.308725   17.422997
H   16.048855    2.787731   34.733452
H   86.638054   57.496250   86.295586
H   68.783257   81.624001   42.136707
H   14.495499   86.416855   76.080139
H   44.341793   39.345001   66.214966
H   67.710197   49.560509   52.316475
H    0.645085   85.526039    2.344903
H   42.295170   93.512535   54.647835
H   71.325974   39.321609   45.658333
H   92.012352   58.970821   23.356712
H   43.615841   71.763824    4.862851
H   61.858036   97.318718   14.369746
H   16.307554   58.707142   33.114269
H    1.122987   44.281506   22.712305
H   36.623947   40.647156    3.000290
H   48.859459   83.711296   20.050163
H   20.920671   31.384991   98.364708
H   80.354973   75.631828   91.862755
H   97.739975   47.883747   31.512150
