200
TIME:    0.710, STEP:   710
H   23.913229   60.915165   23.376286
H   32.153381   39.739624    8.977601
H    8.286912   89.709976   68.498222
H   33.685440   82.467232   32.209312
H   10.220033   95.641327   46.901031
H   74.328674   40.058456   51.638062
H   10.168685   54.970650   58.748577
H   13.421063    9.181312    8.389529
H    6.515389   80.460098   36.253773
H   94.316330   68.315331   77.533791
H   28.575579    4.634226    7.814110
H   32.721313   54.567818   35.136780
H   22.709743    2.606440   42.028679
H   82.189201   55.189892   64.913811
H   96.930313   75.562675   41.822166
H   15.600794    6.601170   44.184113
H    6.317056   29.730923   92.612526
H   25.401859    5.761600   35.152866
H   80.663162   12.686413   49.402664
H   91.551537   73.250206   19.251194
H   63.725563    0.220239    4.307896
H   79.565620   66.779305   52.462738
H   80.930885   59.124176   37.858818
H   18.563351   92.344231   90.112312
H   23.675079   31.606672   28.639492
H   18.272032   83.194824   91.433556
H    7.997579   68.227455   67.979111
H    5.296887   89.517937    1.967980
H   30.864086   42.243843   35.586250
H   71.810638   33.355137   82.367813
H   12.747869   71.085182   16.769440
H   23.379261   74.521957    5.174815
H   15.767021   19.098745   78.920044
H   80.871284   64.090691   46.505402
H   25.433397   70.380234   30.643690
H   17.708588   39.205742   84.865959
H   99.754303   64.284729   89.483376
H    9.667010   56.913021   94.035568
H   35.675461   29.570721   54.878906
H   85.575378   37.755733   45.337006
H   80.644157   83.268036   17.124695
H   36.733170   33.251274   25.894474
H   68.239334   76.985039   67.780449
H   36.234207   86.061195   35.557552
H   44.835899   90.634827   61.324821
H   34.445755    1.606812   47.799458
H   88.831116    3.185665    6.483646
H   78.673485   65.543434   30.751297
H    5.256931   10.916445   61.505192
H   45.298130   19.922514   85.828751
H   67.027664   64.547249    9.242377
H    3.171709   43.787579   73.646553
H   64.853233   80.980598   14.070671
H   15.411526   92.102066   88.663231
H   57.304794   65.932281   75.573082
H   99.280693   60.770958   94.038544
H    4.089165   18.524025   44.612934
H   72.543564   69.505371   96.820091
H   18.263693   83.556747   18.493870
H   32.232891   93.350014   58.305801
H   48.897339    6.206579   28.504395
H   98.383720   17.538279   52.669273
H   84.395691   34.942581   69.028442
H   35.513969   65.822884   14.161301
H   78.903687   83.085754   37.148914
H   20.302660   34.820854   41.311478
H   68.618996   13.247979   95.545509
H   94.709435   92.518501   96.576744
H   33.240387   12.204623   56.030937
H   42.531467   49.821781   50.957493
H   58.258980   84.721176   85.853210
H   18.931252   11.467967   41.474842
H   92.410782   33.788555   83.757614
H   23.177454   98.633797   74.255653
H   84.867996    8.479785   45.513336
H   65.193565    2.483532   59.806221
H   93.441040   47.447182   65.497475
H    9.147181   14.528383   31.895912
H   15.103841   50.632969   24.528463
H   61.193394   88.045715   71.972198
H   63.315990   22.158571   94.155884
H   47.303074   60.137661   73.327507
H    9.166017   18.821806   76.528114
H    9.347395   77.228401    9.169772
H   22.171425    4.293901   44.462685
H   37.908333   69.329773   17.998924
H   56.920090    3.763485    2.848849
H   71.422951    1.051472   29.169563
H   80.071671   73.201172   78.863403
H   21.090042    7.114274   49.694759
H   21.541035   38.950146   78.663956
H   80.781578   92.659149    8.623112
H   69.587219   11.561367   82.343979
H   38.952236   77.548042   82.010017
H   37.033913   50.568550   87.514748
H   49.808266   38.217529    6.963345
H   85.681175   98.022575   18.570869
H   93.974525   35.741661   53.043568
H   26.368034   65.069855   54.546860
H   75.376503    5.564344   27.365152
H   30.835966   93.421387   91.071449
H    8.048957   83.767242   63.272057
H   32.922058   19.993269   37.070469
H   44.459770   68.807251    8.826980
H   24.715704   21.296165   40.325459
H    6.030256    3.761808   21.886000
H   87.922630   35.932697   54.071884
H   61.981640   52.319992    0.567490
H   84.740913   34.156921   21.859486
H   19.464808   21.507311    7.837565
H   53.378281   91.982536    1.126530
H    4.865781   75.164246   95.864784
H   48.930931   85.728683   83.712212
H   61.632072    9.264729   62.834099
H   48.165901    1.539906   10.292993
H   94.857658   92.048561    0.137318
H   13.250916   15.060781   89.659225
H   38.386547   50.130367   24.583672
H   36.711395   75.359406   60.311031
H   83.185966   56.055355   66.875900
H   45.459969   24.882679   72.118752
H   98.009781   16.346073   62.013275
H   43.567574    1.999874   37.972080
H   97.152786   50.405975   97.283134
H   62.852806   97.315315   77.268623
H   64.941429   75.211395   16.456583
H   83.704048   51.384445   52.903366
H   65.148140   91.256187   38.972073
H   98.251640   35.470768   74.179436
H   90.525879   21.921658   74.508736
H   67.581505   68.404083   21.372692
H   63.659767   90.712936   20.410740
H   90.903023    5.461264    0.871609
H   77.874527   25.053272   55.491604
H   27.644428   92.871765   34.819519
H   49.839996    1.023649   76.757393
H   69.670837   87.762184   78.736107
H   95.227287   49.546001   75.772148
H   58.598236   50.906433   71.438927
H   43.702538   86.548943   82.397949
H   73.886017   49.247139   30.092255
H   35.601486   55.291336   57.203350
H   39.896667   65.411476   83.531357
H   36.176674    9.514475   85.912819
H   62.394146   54.179535   64.437347
H   63.161011   70.072952    7.336205
H   55.847282   94.719536   43.916607
H   29.818810   55.923500   66.128441
H   77.749969   45.168976   93.272141
H   24.444218   93.806099   72.408508
H   59.654228   69.291977   47.796032
H   53.572105   94.104530   33.423592
H   98.009781   14.264507   86.965912
H   22.334064   11.930977   64.338066
H   32.249813   66.291672   69.255867
H   77.454506   44.694294   68.521317
H   64.231003   74.979034   86.320969
H   52.728233   29.118927   20.735275
H   90.870674   99.963394   85.174461
H   58.410320   37.766876   96.277725
H   58.572685   65.314919   70.919319
H   21.536573   20.620636   31.472282
H   85.450523   14.078018   37.036625
H   28.526812   33.986843   51.090691
H   54.453987   38.036278   14.442627
H   20.011364   49.484653   59.732586
H   66.806648   89.965034   57.204189
H   24.042789   52.316574   67.447830
H    0.459390   26.641756   35.747124
H   47.921509    6.912894   85.110687
H   70.386108   11.223208   35.936630
H   29.926252   47.989716   58.901405
H   46.754021   57.258327   77.199539
H   65.438431   63.296234   85.143738
H   49.593079   91.500931   77.132042
H   15.418287   50.199627   23.738026
H   30.589443   67.603714    6.568412
H    5.895538    9.649086   70.890030
H   63.581852   10.453357   63.637905
H   63.942978   59.496758   93.015175
H   72.836960    2.032112   30.791626
H   28.707666   30.679775   86.774292
H   43.994419   89.671524   15.378479
H   61.716347   26.090046   94.481087
H   91.600922   67.949020   76.460495
H    9.099672   40.189682   86.306496
H   47.717651   96.474083    9.679232
H   67.841171   87.133003   41.972534
H   93.007057   63.269314   71.914963
H   58.160362   55.716625   71.641129
H   70.272354   15.474457   75.945137
H   43.799957   97.701874   18.637869
H   14.540208   28.705494   68.573387
H   26.892607   82.288528   42.785213
H   68.765610   33.262180   20.278866
H   76.475601   11.536734   23.127144
H   12.585422   98.375114   19.330427
H   15.250198   88.065132   33.711746
H    5.645753   12.926992   56.997017
H    3.105682   19.069199   91.219025
