100
TIME:    7.630, STEP:  7630
H    1.336860   22.313431   92.160538
H   89.755142   18.321774   59.202374
H   10.923662   22.836468   33.775440
H   82.757278   18.294537   21.936008
H   26.827631   84.335487   58.824402
H    9.695748   92.941948   34.370346
H   53.080799   76.552368   87.129089
H   20.183342   48.693264    7.631911
H   66.067909   52.700027   19.805172
H   66.357338   25.940493    6.463623
H   90.531021   73.252243    4.789648
H   64.627670    6.143117   49.817055
H   57.209969    0.152769   66.857506
H   77.289391   81.558083   37.886776
H   73.279976   88.483627   83.975128
H   94.736816   44.381348   99.683868
H   10.547913   86.636108   67.977356
H   64.231888   23.563019   35.032295
H   64.100616   98.439499   65.338165
H   86.951767   43.780743   35.818459
H   11.501694   96.626099   50.150616
H   93.875870   54.212921   69.513306
H   83.870705   32.567924   14.046550
H   10.120550   28.105196   40.403687
H   56.691475   81.063126   92.889198
H   11.631252    1.170905   72.866219
H    4.135103   25.306334   51.361156
H   88.744560   12.582297   18.979109
H   77.077721   41.345020   96.498619
H   93.561844    1.996716   89.952049
H   16.343424    6.252978    5.717717
H   47.520077   41.701717   92.916771
H    7.803370   10.235502   85.167610
H    0.486846   74.478767   50.311096
H   91.065926   81.971977   89.266891
H   35.900196   83.042938   95.438423
H   11.615624   25.108778    9.679442
H   48.629524   19.318386   60.868019
H   23.006809   15.172373    4.908951
H   44.532532   97.887817   38.347000
H   13.795252   17.987494   22.103971
H   57.199120   71.524200   69.483788
H   76.951019    9.257977   52.595600
H   92.142868   40.711693   26.756634
H   94.810005   30.851551    9.029522
H   79.635094    8.446067   14.158979
H    1.344856   39.784004   98.703911
H   56.653316   73.956512   40.678692
H   88.063362    0.534384   40.110374
H   85.933350   46.866917   50.043282
H   42.977680   33.016678   33.857574
H   75.946426   55.732059   73.174774
H   67.142403   66.250061   59.732033
H    0.001945   82.713943   68.507217
H   33.283432   27.261353   65.246887
H    3.098915    4.507704   32.883591
H   79.960358   69.385963   81.663887
H   57.910080   56.328133   17.023523
H   92.035255   61.163754   25.730927
H   55.516418   14.254750   46.595238
H   41.007244   23.741661   19.501625
H   28.114326   56.923111   50.121834
H   92.061134   86.625275   10.258453
H   66.979424   83.326904   19.983784
H   35.170197   51.449482    6.117366
H   32.624329   62.963432   97.328995
H   75.399170   12.152040   35.439312
H   53.309502   53.905449   30.960724
H   37.180588    1.543197   81.692688
H   84.986092   31.879526   85.660492
H   79.745171   76.256866   70.624825
H   44.955219   98.253319   15.322503
H    9.500528   40.901218   66.119202
H   62.238796   66.515503   49.804565
H   30.015326   39.549961   79.813477
H    6.032884   96.583885   82.526863
H   59.749714   65.405708   26.060175
H   90.451599   51.814602   35.816212
H   27.399656   31.107006    2.807135
H   25.342484   93.376762   63.589882
H   60.184853    8.218209   36.017578
H   13.846009   93.952316   48.678013
H    0.488688   34.718662   56.586548
H   75.080421   65.074829   66.533653
H   80.812363   71.617638    8.110061
H   75.688278   89.316742   71.633530
H   76.745232   48.589317   87.371132
H   78.740410   94.513611   16.466705
H   14.027707   69.346092   65.787239
H   91.744080   95.355728   96.971985
H   36.273762   85.429451   94.593430
H   42.841633   69.328323   78.907341
H   74.551239   56.458462    9.044192
H   84.675972   76.076134   41.277920
H   24.674355   66.281662   91.416351
H   24.128342   94.432190   73.349434
H   56.968712    5.549835   98.380089
H   23.549654   63.989986   25.709551
H   45.237358   69.750389    5.944073
H   13.140692   82.835068   62.719135
