100
TIME:    6.333, STEP:  6333
H   89.047684   41.253746   93.347977
H   25.572887   48.040775   77.422096
H   88.624008   29.524872   49.004345
H   82.539581   71.730560   93.029175
H   38.446945   80.375305   93.992386
H   29.812168   94.347084    5.924125
H   21.058121   88.971855   85.701927
H   22.124985   36.486713   26.718647
H   97.950645   77.401215    1.446351
H    1.782837    7.316383   55.680302
H   11.174789   21.064306   29.723213
H   14.126877   41.131062   42.138802
H   39.944962   78.621223   95.742851
H   41.508171   85.555794   39.184544
H   57.526619    4.338043   46.348057
H   46.888077   57.821693    7.346440
H   14.845042    0.850507   49.906319
H   36.495373   86.675400   79.990273
H   43.904209   44.031372   97.010208
H   21.895859   71.322060   47.512688
H   88.467529   25.747066   85.354286
H   69.531219   52.491135   79.964844
H    1.187639   43.116341   51.156281
H   30.630623   12.589327   36.729649
H    3.080564   83.921295   83.310524
H   17.676935   39.440483   94.890648
H   15.976852   79.222549   25.623419
H   98.182144   52.042732   76.109451
H   48.876045   23.671200   57.807617
H   43.827946   34.098228   86.844223
H   65.301018   89.948036    8.332130
H   65.626740   77.536423   12.986488
H   16.444794    5.130324   68.323608
H   45.686516   93.341141    4.952707
H   23.345413   80.173103   10.355021
H   23.154390   81.456291   99.515297
H   87.216042   72.607056    7.480956
H    2.239258   43.057270   69.342735
H   77.755157   43.430473   30.597185
H   66.694717   19.308804   36.301556
H    2.436450   73.482140   91.548439
H   66.503220   66.438004    3.271285
H   65.789093    1.477598   58.912331
H   74.959473   18.941977   99.943443
H    7.315292   82.023758   98.041733
H   96.377983   83.709122    8.889719
H   91.211227   69.248001   86.255592
H   56.577633   60.597824   60.428074
H   50.148094    7.951575   91.847702
H   58.703342   27.124521   40.728592
H   43.066738   58.233322   20.186512
H   12.905762   76.084808   58.314156
H   40.238171   58.729614   35.057774
H   30.034256    3.871520   11.274451
H   36.552483   13.598481   54.214718
H    1.483503    5.872022   77.036530
H   97.737434    6.810466   58.308464
H   54.487213   78.813683   50.432358
H   89.747360    6.353986   25.298317
H   41.105705   14.563008   83.485008
H   59.191242   84.057632   20.625851
H   74.147377   68.995407    8.804702
H    4.007312   75.130409   99.197632
H   77.916061   76.261642   55.201244
H   83.690842   55.038769   85.333473
H   12.300747   27.440758   20.640226
H   79.459854   67.308228   72.819290
H   42.902214   79.728065   68.956619
H   72.539131   94.737350   63.039463
H   58.687996   66.675224   88.397644
H   20.931263   64.503815   86.180275
H   51.781727   41.345139   20.294037
H   94.067291    5.051521   99.367493
H   90.796089   48.603077   26.867754
H   67.508781   37.669971   81.482193
H   75.375542   13.458244   69.797821
H   41.954678   77.663841    3.058227
H   29.516186   36.620834   64.189354
H   65.201485   34.916706   88.338692
H   88.949112   64.031197   75.327599
H   34.799500   94.799454   58.497486
H   16.520590   85.541290   57.184910
H   18.450905   13.028451   33.066399
H   85.849709   54.087791   84.995384
H   43.965034   52.753319   33.838974
H    5.534187   41.676010   81.565872
H   90.121468   42.892097   25.525351
H   57.881065   98.300354   29.914452
H   87.110214   41.560493   76.395027
H    6.415971   48.720356   50.605354
H   83.195091   15.396038   67.203171
H   46.876766   71.781525   54.192749
H   91.411087   17.540150    8.745189
H   59.326397   97.388985   53.823441
H   47.098778   82.458145   61.611637
H   17.001465   45.647919   40.341370
H   59.918510   31.117445   72.972641
H   26.053171   99.816437   51.745346
H    7.023625   64.149635   14.581551
H   32.578053   16.120255   87.662422
