100
TIME:    3.916, STEP:  3916
H   52.498932   62.904175   95.560806
H   92.338860   17.063303   25.019758
H   47.067207   55.636559   77.375191
H   82.133896   71.310844   25.513342
H   60.095795   86.642174   59.525589
H   67.299568   96.965599   66.561485
H   47.732098   25.764462   96.689232
H   12.096420   27.385830   48.640377
H   57.365181    9.785994   53.589596
H   67.826714   72.611320   61.038422
H   35.998245   23.811054   62.539616
H    6.376205   19.979242   14.183992
H   94.165970   24.784119   35.910568
H   61.183495   93.005653   55.250362
H   28.134964   20.234436   62.535633
H   44.071075   69.221367    7.978732
H    9.205718   40.983234   29.877279
H   84.821007    4.265459   63.782848
H    6.261467   42.635185   69.671021
H   87.014885   22.655619   82.952141
H   31.895721   66.368042   50.954842
H   37.811081   49.282532   85.794724
H   33.459785   62.773643   20.308849
H   55.202675   83.647949   16.236401
H   89.526031   75.601547   65.460365
H   28.700338   10.926608   22.124170
H   24.397421   79.694412   77.670082
H    2.121707   39.225342   96.212456
H   96.320023    4.382411   72.060951
H   51.149704   93.918388   94.699768
H   70.176186   73.210213   99.557487
H   13.015729   44.315582   36.740303
H   46.195560   81.969353   50.581161
H   43.562256   14.844606    6.776869
H   83.429581   62.900536   63.183861
H   13.043505   92.107697    7.169584
H   55.393738   61.123520   17.030630
H    2.137910   87.285713   98.783638
H   79.777588   96.095818   64.822746
H   94.350182   45.580727   46.137363
H   67.620926   90.551956   34.604961
H   79.673355   87.610260   86.778641
H   44.971638   86.983032   84.330315
H   29.295420   78.400116   63.619507
H   16.972021   77.385071   91.213074
H   27.565884   37.608509   99.068214
H   72.328415   37.803795   63.057014
H   56.448551   35.703491   10.877769
H   79.497910    8.127213   88.263214
H    8.007747   90.340218    9.774990
H   43.245853   91.578651   94.706497
H   95.443619    0.363302   16.983265
H   90.103981   44.715027   75.435066
H   86.007652   43.313789    4.619395
H   28.996048    1.776647   33.653843
H   98.466019    8.414846   59.316925
H   44.508556   76.552086   28.431738
H   34.462395    7.069538   12.687647
H   99.124275    4.228806   10.849277
H    0.604192   28.784834   52.230232
H    6.724583   96.460838    9.074373
H   59.928123   91.492508   18.166893
H   39.917622   40.062675   64.938591
H   11.943735   63.096573   20.819965
H   87.755272   48.079967   60.249195
H   60.779060   47.596809   77.728287
H   73.380386   83.748291   56.126995
H    9.860922   41.497940   53.410046
H   52.076317   68.407547   14.627098
H    9.724947   45.106506   93.487152
H   97.680901   28.955555   15.172646
H   51.074486   21.560913   43.333164
H   51.661209   24.605190   61.344902
H   44.005581    1.566671   70.478722
H   50.976559   34.221645   98.256874
H   18.232889   58.552780   32.432751
H   22.502024   87.133835   60.305576
H   15.961131   94.662636   30.705858
H   49.298096   42.016201   61.377258
H    7.477164   95.679680   83.554375
H   87.506332   69.794479   14.039243
H   35.146973   69.802017   59.324097
H   65.564278   72.622925    2.879641
H   19.565123   47.259834    5.751442
H   61.652695    3.935575   68.140152
H   61.168308   52.897026   13.722274
H   28.695517   18.627831   10.273451
H   18.990526   91.769966   55.017952
H   36.952744   76.135735   96.162971
H   20.111288   48.161934   64.202393
H   84.281433   84.884056   16.160563
H   68.040771   90.006401    8.143879
H   36.476601   45.017166   21.834818
H   25.723888   50.767822   90.854424
H   88.884377   98.957390    6.073092
H   17.367172   41.092171   65.182426
H   51.768524   92.411980   11.976152
H   21.240606   49.580078   93.374702
H   22.164024   53.730633   17.030441
H   82.448586   78.141365   20.499037
