100
TIME:    5.105, STEP:  5105
H   72.092201   53.866798   94.472244
H   59.487404   81.496536   99.991638
H   67.506516   41.177719   63.423077
H   82.333466   22.324657   60.342026
H   49.446030   81.945770   27.286674
H   48.859135   95.677467   84.311607
H   85.416985    6.050824   89.670654
H   18.643364   30.249332   39.469997
H   28.137291   95.468353   78.745918
H   35.333138   89.683601    7.594498
H   25.400360   71.653351   48.009724
H   60.999466   79.578011   29.549105
H   18.306381   52.881126   17.763428
H    2.312210   89.340828   45.733437
H   42.595909   14.028405    5.378800
H   96.262161   65.227066    9.281275
H   13.593487   19.627361   38.116638
H   10.234872   46.425434   22.560072
H   24.780521   92.513351   32.313198
H   54.977432   97.405067   63.904762
H   61.338783   47.998985   18.686176
H   51.801666   50.860947   84.540390
H   17.584923   53.103584   86.289642
H   44.730106   97.898895   27.931042
H   46.999542   81.307770   74.241432
H   23.274851   75.741928   10.367205
H   21.868643   30.267666    1.256013
H    1.797307   94.723862   35.516815
H   22.174690   12.257713   15.856171
H   96.742310   64.490929   89.221779
H   16.968590   79.830444    5.487587
H   88.090126   11.467910   26.668602
H   29.946243   94.976677   57.695671
H   93.799393    5.879980   56.685371
H   53.875122   73.021194   35.586830
H   16.406618   85.273933    3.377047
H   69.434174   17.579536   10.719287
H   52.991680   65.532616   82.687035
H   29.588657   70.188042   49.599655
H   82.359200   34.270103   39.685162
H   86.361450   31.348104   62.617290
H   72.812157   40.973122   42.635006
H   55.213192   94.113113   70.212471
H   53.371143   98.330017   79.875656
H   13.835135   30.474533   92.958763
H   12.225672   60.286884    3.900205
H   81.617477    2.464520   74.469521
H   56.512051   47.949814   84.446419
H   14.255852    9.654331   40.833763
H   32.944889    8.432714   26.613922
H   43.155140   76.788544    7.241797
H   53.225609   90.033493   38.928574
H   14.764255   51.609253    6.378061
H   58.468857   23.910172   57.085716
H   34.327728    5.982309   43.768398
H   99.953720    7.163758   18.840561
H   19.887215   42.244240   41.515495
H   45.926407   94.783104   82.061752
H   92.897713   54.468002   19.569008
H   22.141911   20.175030   18.412239
H   81.727753   41.165638   16.370514
H   17.729738   80.425461   64.371262
H   20.638384   58.927170   83.405273
H   93.590553   69.572250   88.538254
H   34.948257   53.116879   70.975410
H   87.737877   88.488487   48.030769
H   77.984619   24.856239   13.531452
H   27.728645    9.497313   10.251121
H   11.333620   82.973595   40.056320
H   33.813576    4.908187   90.983459
H   59.925941   48.056076    0.908409
H   53.035896   82.099838   30.385605
H   74.135666   65.790352   30.856094
H   17.828632   26.323887   99.832390
H    8.304601   35.917988   88.391327
H   46.345001   34.755119   52.426991
H   30.455523   84.079048   81.332970
H   71.822510   16.916550   96.368889
H    6.317425   38.523731   74.641365
H   49.166382   30.923824   81.120972
H   10.768791   82.095230   85.103111
H   24.359657   77.567093   59.900658
H   40.777847   92.492981   16.117659
H    1.366244   49.005173   97.154724
H    3.757523   29.564056   52.879875
H   33.800045   96.568810   96.289764
H    8.106146   32.177841   66.969620
H   38.127991   96.576401   42.653702
H   61.626816    9.934326   86.438484
H   14.987769   99.240280    6.709836
H   32.940331   49.086292   41.270061
H   56.017200   79.424255   30.798613
H   12.693719   80.697243   13.782063
H   40.645729   22.888254   71.021477
H   68.328697   92.454369   33.392521
H   15.573699   94.141327    3.768934
H   57.391350   60.646145   43.595917
H   25.603926   59.703705   74.343010
H   65.522675   58.855946   17.439369
H   56.300976   47.630215    5.959279
