100
TIME:    9.077, STEP:  9077
H    3.481965   89.617592   90.835770
H   49.791306   96.732391   50.439571
H   35.796185   26.939270   16.790234
H   83.000153   58.678276   42.621605
H   13.861464    0.318830   19.590935
H   87.259399   91.374306   77.672089
H   77.243660   74.261208    0.286385
H    6.451996   73.877151   74.774284
H   30.497887   13.575595   28.721998
H   26.834368   46.717274   63.121986
H   55.934601   31.473728   65.405922
H    9.396004   78.673790   46.817955
H   64.939484   12.569914   23.060478
H    5.643149   77.098030   48.004490
H   90.855232   59.230446   14.388519
H   36.557419   17.821495   79.570374
H   94.188576   82.343575   99.703468
H   95.171127   53.152077   84.872635
H   86.643753   59.146534   41.572659
H   47.963970   13.053759   34.336937
H   25.634666   52.573921   10.879198
H   32.601177   56.133835   46.287872
H   64.551170   20.804823   72.646606
H   75.674271   45.415497   32.936901
H    4.939500   66.309967    3.573981
H    4.807302   58.513535   36.695766
H   79.359566   65.158951   80.069321
H   66.649811   80.123383   66.812126
H    8.541442   72.628502   28.096745
H   49.045113   66.183670    4.984423
H   73.294090   36.008030   91.235748
H   38.884541    1.726072   58.960716
H    9.727976    4.366285   15.524800
H   61.627045   41.869751   89.352440
H   55.054314   72.413734   77.305344
H   61.685520   96.381546   90.890053
H   50.400986   72.115486   23.697287
H   88.822975   92.838615   62.978523
H   61.931042   83.645531   64.683655
H    8.241865   62.425919   52.194733
H   14.902933   67.633987   56.194668
H   35.253860   77.198624   43.357479
H   89.403839   17.938583   57.112995
H   99.748573   65.006569   68.234200
H   69.292465   73.770119   32.855335
H   60.957664   36.040691   20.037638
H   12.657252   18.476553   12.599371
H   56.741634   88.860153   30.210468
H   30.359947   80.692909   82.389313
H   16.310217   68.893639   48.869465
H   42.878323   93.317360   49.114487
H   46.271572   21.460423   78.187416
H   97.148399   74.640259   75.695480
H   66.485321   59.108704   32.358284
H   18.070660   54.070381   77.545151
H    4.901152    2.985600   83.624283
H   71.693298   27.633690   19.285818
H   50.163513   19.676588   79.751976
H    6.162297   22.304502   14.643801
H   60.029140   25.476414    5.439110
H   32.285259   56.447285    6.682588
H   76.757439   43.454636   84.649818
H   90.298172   87.884544   11.033325
H   66.342468   91.209274   80.699646
H   92.604431   35.878902   40.870472
H   43.734352   91.029137   82.887444
H   59.303879   62.175053    5.299102
H   53.355316   36.661324    0.135696
H    9.297422   97.571014   90.938751
H   14.374145    4.559732   82.591446
H   33.790539   77.800499   53.270363
H   25.798616   50.208397   21.386604
H   15.154577   69.323570   29.015156
H   30.389164   74.935768   63.829048
H   99.720047   41.680630   89.525970
H   40.244293   89.323479   85.162216
H   91.167801   40.163303   51.726280
H   58.426907   57.204079   15.737952
H   96.789604   26.856709   18.956011
H   54.380547   14.551891   38.929497
H   88.512810   23.188089   22.503334
H   22.427162    3.339522   27.622465
H   92.014107   58.917759   94.390144
H   74.631416   88.897560   34.373531
H   10.356781   81.099167   67.840317
H   42.385273   42.467522   72.117599
H   73.387154   43.380318   56.369591
H    2.012018   78.724586    1.463622
H   44.059086   88.779793   53.952644
H   63.811153   35.824257   48.696548
H   95.490898   63.560246   25.151756
H   49.904980   78.156723    6.482233
H   67.306717   99.868614   20.942926
H   24.522409   63.864002   38.845699
H   99.653290   36.667484   24.665258
H   43.644592   37.290527   98.609848
H   42.112480   88.589302   15.161486
H   20.756601   35.590549   96.657860
H   76.305748   75.998878   84.743538
H    3.019774   45.702847   23.323559
