100
TIME:    3.114, STEP:  3114
H    6.735467   36.451591   96.295059
H   14.648657   73.581955   74.430191
H   33.281609   97.938187   86.785866
H   81.999283    4.352625   69.475525
H   67.279236   22.358334   81.271713
H   79.732918   97.834465   87.135796
H   89.765709   71.610741   33.971794
H   75.132034   58.001583   22.276508
H   77.079872   86.894913    4.071114
H   89.744164   61.095787   29.630754
H   10.598328   91.541245   39.793240
H   36.988434   79.779495   71.271202
H   45.180443   73.306000   15.622959
H    0.894308   95.477638   94.216194
H   18.378578   91.872543    1.084258
H   76.317017   39.367340   74.552101
H   73.697762   87.937744   56.868053
H   67.688438   43.266914   91.586609
H   93.768822    8.988048   27.420061
H    8.623947   39.685848   28.348200
H   79.487549   46.209297   72.721771
H   60.922562   48.217865   54.092407
H   44.167641   69.296257   43.255814
H   29.717194   74.029236   75.801460
H   18.209717   39.203865   59.537392
H   32.380466   34.822796   97.296425
H   93.554977   13.031142   61.760410
H   69.790794    1.790702   69.705925
H   78.881516   31.618074    9.972200
H   20.397900   13.768733   30.942188
H   38.610622    1.294478   63.009178
H   62.377052   66.472343   10.985451
H   89.703339   40.646828   78.330666
H    9.674754   88.343300   40.562485
H    3.364887   23.525757   14.349922
H   43.304745   29.105543    9.935586
H   78.471718   90.493637   53.836300
H   35.283951    1.959280   42.187336
H   13.628633   13.568659   42.542221
H   69.888657   20.660757   83.037636
H   22.431761   63.029926   15.710212
H   51.752586   51.617523   49.099228
H   38.063541   82.173676   26.401432
H   80.509399   64.963287   85.204185
H   86.539009    9.030024   22.584475
H   37.912731   22.311573   95.813026
H   66.062790   94.187042   55.353477
H   56.405720   27.444834   61.254601
H   56.052841   74.547478   20.254824
H   91.190453   78.139381   65.865997
H   43.307041   69.006866   86.250351
H   56.467030   74.783844   69.634666
H   73.473152   40.064758   22.012650
H    4.582745   56.401848   69.228790
H   92.851578   31.487144   26.833727
H   97.462540    9.259237   86.618896
H   93.666420   99.693291   52.154793
H   94.181633   82.808563   33.347244
H   35.871109   70.342758   72.420616
H   53.525917   67.141449   75.041023
H   56.134346   33.756741   71.603043
H   88.392662   98.957413   54.457344
H   85.470055   94.788994   19.934158
H   56.873222   58.733887   42.596684
H   55.923855   12.133597   85.562126
H   10.047220   87.466743   30.307896
H   37.726875   56.019764   17.406237
H   65.260475   95.629578   15.069808
H   12.102512   26.034142   64.929390
H   93.475403    4.767128   95.175934
H   23.149059   83.522957   24.794418
H   17.203905   48.177582   84.614532
H    3.952457   64.273247   81.904778
H   61.663120   52.320168   18.134270
H   12.310611   33.077435   37.460728
H   99.272087    7.150422   86.396759
H   49.686398   56.646706   46.122257
H   78.281708   47.104252   86.414383
H   10.841392   44.371929   52.425491
H   46.808968   39.358791   52.647293
H   71.817795   61.497417   66.105240
H   74.971756   64.564346   26.387049
H   14.821507   59.235046   26.492893
H   64.387100   78.630585   79.000732
H    0.702748   54.103039   45.885002
H   79.623474   23.436016   58.028835
H   75.131737   76.939751   72.030823
H    6.082972   55.979980   63.357841
H   20.307529   20.789640    2.723199
H   91.018921   81.157303   35.535889
H   51.460327   41.578541   99.223709
H    8.696209   29.696283   92.860313
H   85.068115   20.952024   59.814842
H   48.208233    2.119250   36.779778
H    2.750004   70.797180   87.643852
H   51.125229   72.762947    6.606770
H   15.427861   46.386562   58.100670
H   18.297476   42.751526    6.209694
H   60.369652   50.273525   84.206627
H   32.633381   98.724922   97.757675
