100
TIME:    4.934, STEP:  4934
H   83.656410   69.548409   94.628799
H   64.210152   72.231079   89.210205
H   64.565887   28.875256   65.429970
H   82.304764   29.370293   69.714973
H   50.977661   68.239365   31.922665
H   51.511440   95.862724   67.377556
H   94.379768   94.504288   76.298233
H   32.083626   15.456161   55.171177
H   32.340797   11.909479   89.509087
H   40.006310   87.228294    0.897982
H   41.306366   64.772751   64.480667
H   67.525810   71.006615   41.721138
H   29.218277   63.221596   34.754883
H   10.778893   89.867897   32.719788
H   40.516335   29.302362   13.598873
H    3.137808   80.183304   23.476109
H   27.344307    8.317332   22.549833
H    6.578267   54.745037   28.487642
H   22.117126   85.340515   23.304750
H   59.584068    1.036954   52.262276
H   71.486168   65.022980   23.327385
H   35.407730   50.633942   99.102631
H   19.868019   54.494316   91.181992
H   60.619152   95.853241   40.631371
H   53.115631   94.868057   72.978554
H   24.054365   80.796051   26.447378
H   36.614388   37.376415   97.863564
H   16.225502   86.742157   29.863871
H   18.456505   96.743370   23.938984
H   90.185257   68.723137   75.627571
H   10.238395   64.495865   19.016563
H   77.293037   16.192276   42.498940
H   17.901279    7.487746   42.290642
H   86.574371   21.550964   63.889519
H   58.125595   85.947433   25.174606
H    1.542223   71.880638    3.914904
H   53.033279   23.842396   97.245346
H   60.058842   68.661110   70.619240
H   36.807156   73.914055   66.171021
H   98.466118   50.279175   26.230829
H   98.048294   25.481199   58.588604
H   88.180656   33.298004   34.602421
H   53.740269   93.087677   57.860916
H   64.289597   95.459839   63.155632
H   28.668085   37.220757   78.326073
H   14.432121   57.025318    3.205084
H   80.281540   93.165001   72.828300
H   56.502918   46.188568   73.865898
H    9.257828   23.816051   47.655655
H   29.358471    5.829985   38.573433
H   43.168186   93.297287    5.439129
H   44.915138    5.900661   50.154884
H   11.217301   50.617737   16.309530
H   62.428398   26.700768   49.539757
H   47.942810   90.995369   42.313740
H   99.739761    7.343634   24.661804
H    9.046865   47.178337   25.252022
H   58.659561   10.932074   86.466171
H   79.410484   47.242981   32.696846
H   33.425625    7.030931   23.275887
H   70.941101   49.117336   29.702492
H   23.798208   82.017105   72.107697
H    9.029164   70.595749   95.131256
H   81.848915   68.640747   93.180115
H   28.160654   66.774750   55.051136
H   98.242729   96.989433   37.919914
H   91.704071   18.944324    5.275177
H   39.540733   99.717300    2.076331
H    2.810734   95.260567   50.781654
H   30.349482   96.307617   91.343536
H   65.355797   59.690735    2.959832
H   67.135284   87.774963   17.865757
H   85.285004   74.249550   35.240944
H   21.592480   37.146107    9.992302
H    0.060183   35.674023   75.428558
H   42.301964   23.795443   63.932491
H   14.929815   98.899605   78.308846
H   63.788616   28.097851   86.926003
H   98.117378   39.026012   72.734001
H   57.552521   40.237476   95.852814
H    7.422722   80.326157   74.882668
H   11.528769   76.450333   74.199364
H   29.961191   89.633240   99.832336
H   89.601196   34.372482   12.772843
H   12.084056   40.260689   69.456459
H   37.736103   90.288338   84.415054
H   96.685417   44.610931   58.815704
H   35.375229   10.266867   44.431908
H   58.078232   19.455046   87.837044
H   30.106455    6.275993    0.597181
H   25.942314   39.853451   37.658855
H   43.364933   66.563248   27.540960
H    1.732548   75.566628    0.558339
H   24.117416   12.515821   59.491695
H   71.284981    7.771266   29.463406
H    1.449737    0.894019   12.601582
H   70.964684   50.832745   53.430191
H   24.976400   58.247742   77.080116
H   73.668762   58.118832   31.762863
H   45.680012   52.017673   22.432344
