100
TIME:    9.687, STEP:  9687
H   62.229645   33.677345   90.277298
H   32.944077   29.788372   88.901299
H   46.281490   70.825569    9.629126
H   83.102539   33.547050    9.184464
H    8.395422   49.212753    3.052280
H   77.802612   90.713448   38.081825
H   45.273884   15.450206   47.989193
H   58.507202   26.650661   18.765121
H   15.502922   54.926422   90.325233
H   10.170969   55.475971   87.005959
H   99.193817   56.018509    6.646385
H   86.115166    9.249735    3.398253
H   26.041931   75.646828   62.439453
H   75.439362   75.217842   94.424400
H   98.264290    4.742226   85.052269
H   12.029308   64.468491   28.935467
H   45.136147   22.690910   55.234177
H    8.217887   23.469307   63.725235
H   96.147079   84.734726   73.713135
H   31.530941    0.099559   75.868614
H   89.435913   91.846321   94.321060
H   91.082474   56.943619   94.340775
H   56.406792   15.846024   55.194366
H   18.995541   52.712860   87.633484
H   83.122177   17.932579    8.076687
H    1.929801   40.530746   79.292442
H   26.757778   39.799892   92.169540
H   15.181013    8.596120   86.972954
H   21.805798   27.972189   99.263107
H   72.435768   51.086319   53.477119
H   97.299065   90.707947   42.974487
H   77.400467   84.869949    2.489979
H   52.697548   59.735275   70.478416
H   87.400513   85.967003   63.653435
H   39.873192   26.228127   14.417232
H   14.711760   44.161564   88.972633
H    8.908689   49.776619   71.763077
H   63.608051   81.678490    6.026706
H   36.180843   70.353905    5.570469
H   50.785862    5.317754    0.187218
H   73.213745   88.567368   70.566002
H   83.846046   79.592453   74.494621
H   94.653473   21.598900    1.175591
H   60.804096   75.245216   27.876820
H   16.372564   49.693424   85.052048
H   53.087868   47.675518   22.515856
H   17.426716   51.653477   18.457018
H   56.778866   95.142960   67.953842
H   48.189156   30.172955   58.057426
H   29.113180   78.182884    6.217355
H   45.220615   34.605705   51.882538
H   75.917114   64.858368   38.144997
H    9.800415   78.177246   40.266747
H   52.359825   49.153946   59.276619
H   69.501472    7.526777   82.729630
H    5.660906    2.343940   62.858444
H   10.366499   10.032129   77.301720
H    4.742259   62.069511   64.040306
H   54.273403   48.081749   67.815224
H   19.777294   72.363937   88.089272
H   70.767792   28.081255   59.127674
H   55.107353   37.776840   57.050835
H   31.719318   46.272888   69.209885
H    8.228415   94.532181   64.140961
H   16.815830   87.158211   97.676353
H    6.262225   60.704124   18.955896
H   10.362114   83.266266   34.751232
H   11.218495   71.547188   29.297226
H   39.701294   53.740295   52.682064
H   26.762909   35.196995   81.297653
H   14.418243   36.293636   45.954384
H   75.565636   29.954491   66.097687
H   75.381760   39.151318   13.373295
H   16.962574   36.330097   27.584520
H   29.102671   42.578838   35.776356
H   54.666824   28.418217   44.116806
H   46.569283   87.365646   62.546669
H   87.084908   17.319893   49.427757
H   26.040586   25.064945   25.764711
H   24.465668   81.322182   86.377602
H    0.454755   29.498819   58.962227
H   68.199486    7.299436   76.588799
H   30.597147   69.119179   52.484631
H   16.599636   41.097122   78.659294
H   80.655396   42.939507    8.708247
H   28.344364   64.876015   14.478051
H   14.127748   99.028023   85.456657
H   11.821636   29.914061   95.142532
H   56.717777   54.815407   48.963631
H    9.877574   10.725609   70.501602
H   20.455282   96.500702   38.033836
H   95.038803   24.034277   18.103174
H    6.408941   18.172438   68.115166
H   81.089882    0.690510   83.640800
H   89.107483   82.027290   38.681679
H   94.028046   13.203465   67.102737
H   93.694145   23.595131   80.079651
H   19.579157   65.771561   84.408714
H   47.246605   78.633003   33.649921
H   40.907822   30.051388   64.561478
