100
TIME:    4.772, STEP:  4772
H   94.611977   84.404671   94.777115
H   68.684334   63.453201   78.996216
H   61.781013   17.220753   67.330879
H   82.277573   36.044731   78.594124
H   52.428680   55.254349   36.315262
H   54.024151   96.038231   51.333797
H    2.870560   83.566025   63.629620
H   44.816505    1.441337   70.045479
H   36.323067   27.485153   99.705772
H   44.433525   84.902214   94.554871
H   56.375214   58.254292   80.085922
H   73.708092   62.886345   53.252663
H   39.555862   73.017830   50.852051
H   18.799870   90.367226   20.391069
H   38.546211   43.772888   21.386147
H    9.651840   94.352371   36.923767
H   40.371346   97.602280    7.802335
H    3.114039   62.626766   34.103466
H   19.593910   78.545197   14.770433
H   63.948250    4.477243   41.232552
H   81.099480   81.149811   27.724319
H   19.876633   50.418884   12.898361
H   22.030952   55.811852   95.816849
H   75.670975   93.914307   52.663460
H   58.909821    7.715393   71.782143
H   24.792852   85.584167   41.680836
H   50.584465   44.111172   94.650063
H   29.894623   79.180542   24.508448
H   14.933919   82.045311   31.596386
H   83.973312   72.732597   62.748848
H    3.862378   49.969563   31.833488
H   67.064217   20.667694   57.496101
H    6.490004   19.340010   27.696402
H   79.729614   36.397339   70.714500
H   62.152359   98.193344   15.310394
H   87.459702   59.192249    4.424571
H   37.496002   29.775631   84.480331
H   66.754555   71.624947   59.187115
H   43.645733   77.443962   81.870209
H   13.724730   65.445549   13.484972
H    9.119640   19.923079   54.771954
H    2.740376   26.027349   26.992601
H   52.344868   92.116211   46.160065
H   74.634598   92.741669   47.316505
H   42.719883   43.611916   64.463524
H   16.522366   53.935413    2.546548
H   79.015915   84.355064   71.273460
H   56.494267   44.520020   63.842247
H    4.522744   37.232418   54.118500
H   25.960812    3.364241   49.903496
H   43.180546    8.937481    3.731339
H   37.042061   20.933069   60.790337
H    7.857024   49.678406   25.718290
H   66.180260   29.344490   42.390953
H   60.841309   76.796638   40.935642
H   99.537064    7.514042   30.176666
H   98.776840   51.852745    9.844397
H   70.722549   26.231325   90.638779
H   66.633110   40.398224   45.134331
H   44.115459   94.579224   27.883553
H   60.722168   56.650524   42.332787
H   29.547285   83.524979   79.436951
H   98.031044   81.650192    6.240105
H   70.725258   67.758270   97.577667
H   21.730562   79.712799   39.964985
H    8.194214    5.042772   28.341208
H    4.701637   13.343709   97.453659
H   50.731133   90.452530   94.331795
H   94.737076    6.900833   60.942497
H   27.067385   88.160156   91.684662
H   70.499870   70.713043    4.903269
H   80.493561   93.151398    6.004848
H   95.847534   82.263527   39.395012
H   25.158230   47.398411   19.617355
H   92.248909   35.442898   63.148037
H   38.471718   13.412745   74.833664
H    0.221185   12.940723   75.443886
H   56.177563   38.691051   77.980110
H   90.348122   39.501858   70.927025
H   65.497284   49.061008    9.809151
H    4.252634   78.650192   65.200142
H   99.373421   75.392349   87.745506
H   19.713831   86.924011   84.405060
H   78.455292   20.509420   27.568611
H   19.972429   50.394341   85.160591
H   41.465000   84.338417   73.165329
H   85.865807   56.389648   51.090942
H   32.767349   23.236570   46.116524
H   54.716415   28.474478   89.161995
H   44.429935   12.941536   94.805542
H   19.312614   31.106483   34.237713
H   31.378572   54.379135   24.454763
H   91.348061   70.704353   88.030624
H    8.459165    2.689232   48.569500
H   74.085670   22.282692   25.741306
H   88.069199    7.290932   20.969170
H   83.823631   41.535839   62.746872
H   24.381903   56.868408   79.673164
H   81.386108   57.420513   45.332489
H   35.618046   56.174213   38.038456
