100
TIME:    1.577, STEP:  1577
H   10.676506   77.402420   97.702225
H   57.403130   90.247414   77.476952
H    6.862011   87.360100    4.823354
H   81.741302   67.677635   53.723537
H   81.046005   99.161034   22.945198
H    3.561939   99.499611   34.921154
H   70.318504   67.825401   13.776314
H   95.937202   25.032703   63.400162
H   14.862328   34.671356    0.819755
H   31.743620   39.026741   69.445366
H   53.566330   29.696323   87.844772
H   95.649185    2.737689   80.676689
H   42.949135   66.296669   68.387199
H   76.997932    0.215147   77.250893
H   99.681450   29.162891   74.968460
H   38.117081   73.800896    2.136467
H   97.279037   86.286514   16.937471
H   34.844170   18.011368   44.874802
H   69.823555   44.511406   46.444088
H   50.029793   72.323349   23.702097
H   70.695221   99.221313   14.442181
H   13.560990   46.181396   84.976418
H   64.688805   81.796577   87.229736
H   72.521126   55.595371   89.952286
H   73.181511   61.103043   48.197609
H   39.428020   80.618561   41.360214
H   26.091953   76.924210   31.260099
H   99.479843   30.048733   18.899202
H   45.461334   92.170013   82.627068
H   61.462399   51.809280    8.755839
H   78.136452   63.462357   84.622284
H   65.329926    8.943162   53.273277
H   81.439774   53.101234   39.865570
H   44.733620   29.199989    5.315233
H   41.573021   39.711128   20.757164
H    9.668557    8.364996   15.218320
H   31.054161   46.783546   32.726627
H   98.812172   30.090549   33.725834
H   79.825027   46.843697   90.978714
H   14.658010   64.550743   62.110363
H   27.470787   10.293986   79.497971
H   89.889404   82.634697   76.890259
H   24.824461   72.956741   15.382012
H   78.657402   39.200867   34.924923
H   19.862823   69.668564   91.057938
H   57.742039   92.995644   89.574593
H   52.731739   10.810153   41.098579
H   56.323635   11.620085   66.153755
H   11.129079    1.843058   81.567581
H   58.964527   54.752346   73.366539
H   43.424305   17.394388   70.044495
H   81.772499   17.404894   70.535782
H   41.592613   31.152710   11.279476
H   40.172306   81.476402    1.406033
H   15.214458   96.752869   13.788090
H   95.539413   10.874596   38.942001
H   96.227432   44.043449    5.973240
H    8.630497   27.959629   72.935501
H   14.652016    5.400141   90.416214
H   54.951900   49.002064   18.755943
H   59.179180    5.235139   91.440758
H   42.940338   13.266300   23.999924
H   81.200134   99.613243   25.369972
H   51.329765   50.372978   84.325157
H   94.915413   34.891529   42.424244
H    4.467749   63.875710   39.429897
H   61.042984    2.884908   43.200451
H   71.431557    7.727026   41.592319
H   35.499931   36.473160   61.327225
H   62.330765   27.461184   98.412415
H   71.955315   88.101372   43.233799
H   43.936016   99.187332   72.083122
H    4.167892   40.300877   21.311687
H   95.482811   49.584579    9.482796
H   38.205276   30.887583   20.945347
H   62.943424    8.643106   89.817619
H   10.135981   89.863266   18.937693
H    6.070658   47.605072    1.530624
H   37.142876   48.882664   35.273689
H   22.186600   23.066782   85.061287
H   41.742680   45.596447   74.242348
H   59.647999   54.526566   54.909866
H   17.579411   33.577728   80.101379
H   58.654629   47.107525   19.388435
H   75.542465   50.242783   94.880081
H   14.994877   66.982750   51.294975
H   72.478981   88.692169   98.740433
H   81.341751   79.036240   79.350822
H   88.409126    6.367736   15.297424
H   26.910164   44.394173   80.590935
H   88.559853   58.583714   66.765091
H   94.968987   14.111483   63.567993
H   86.467720   74.882614   40.916367
H   99.650124    8.888909   33.147987
H   29.327553    8.470886   52.323997
H   24.175354   33.456352   85.994705
H   37.427170   58.181240   46.494553
H   12.655351   29.664886   30.804607
H   33.587242   43.648121   12.953663
H   37.178421   38.196445   45.798409
