100
TIME:    6.676, STEP:  6676
H   65.851639    9.799616   93.033951
H   16.101082   66.628120   99.048012
H   94.522461   54.201942   44.976963
H   82.597153   57.599396   74.229492
H   35.374725    7.868179   84.691986
H   24.492046   93.975487   39.892872
H    3.081828   12.132399   12.525049
H   95.165855   66.159729   95.225197
H   89.519051   44.423264   79.856941
H   92.414162   12.241964   69.110146
H   79.269775   34.865742   96.683647
H    1.034646   58.323978   17.724056
H   18.057358   57.879040   61.660576
H   24.525181   84.498573   65.287819
H   61.692696   73.699608   29.853848
H   33.097107   27.821754   78.874512
H   87.262825   23.536678   81.130959
H   43.830494   69.984924   68.099159
H   49.245266   58.421608   15.080325
H   12.655647   64.036659   70.865746
H   68.113419   91.600067   76.043419
H    2.414963   52.946472   50.755203
H   96.607979   40.326744   41.342972
H   98.760948   16.692598   11.255243
H   90.812813   56.720718   85.843666
H   16.113348   29.300064   62.635071
H   86.400124   64.965775   32.429928
H   69.239426   68.052818   87.445786
H   56.334160   54.790813   41.593414
H   56.980396   25.609062   14.111538
H   78.798897   20.705719   81.195137
H   87.284058   68.058075   81.233315
H   40.605625   80.034630   99.223755
H   60.178810   61.907150   90.502655
H   14.809052   54.203163   31.224482
H   52.970760    8.321485   98.437141
H   20.114609   60.046021   34.507908
H   88.061287   36.779369   93.548897
H   63.278431   35.956657   97.358688
H   34.389088   87.198547   63.289463
H   78.994522   85.252876   99.629372
H   37.597137   67.783081   20.782070
H   68.740936    3.535264   83.688438
H   53.057476   24.699118   33.479790
H   77.561668   68.489243   27.393904
H   91.950218   90.251328   10.283209
H   93.890915   87.901138   89.547630
H   56.595951   64.130615   81.650986
H   60.173370   79.543373   78.166641
H   65.903076   32.346424   16.745699
H   43.043186   25.119020   23.801735
H   29.579105   44.256660   35.798500
H   47.353474   60.718445   15.136557
H   22.092018   98.275253   26.409191
H    9.241608   43.657860   57.132542
H    1.910709    5.511219   65.360001
H   19.481859   96.913033   90.930519
H   28.946600   46.421913   41.597763
H   16.799446   20.848461   98.966927
H   18.472290   40.928097   73.729271
H   80.827629   68.105118   93.882950
H   61.973640   65.802811   93.285339
H   27.293695   51.725014   75.677094
H    1.468102   78.130096   45.887760
H   97.303864   27.642838   17.275843
H   91.230347   10.389368   40.921066
H   51.940720   79.167938   89.378922
H   19.208961   99.344215   85.354004
H   89.632607   70.091553   41.526073
H   65.636436   83.925713   87.675385
H   10.038849   41.166458   82.066536
H   23.500685   29.961700   45.407646
H   71.703415   88.084442   90.574768
H   83.243767   26.895729    6.488759
H   84.047478   38.159328    7.483821
H   83.482643   35.441570   46.718880
H   73.106049   47.976513    9.141436
H   45.630947   14.192575   83.130348
H   81.651207   33.909206   92.164574
H   72.127792   45.346657   45.777763
H   41.511803   98.347946   78.998138
H   42.258415   87.765640   28.490635
H   40.147476   18.764318   65.732803
H    9.448224   83.438744   53.666935
H   27.263720   31.297501    0.589157
H   97.640060   54.276299    5.384856
H   13.029741   17.953209   41.880867
H   63.397453   70.854492   26.358109
H   94.228134   22.463140   73.589729
H   76.091141   34.607510   62.865448
H   97.232048   33.916885   74.446701
H   72.255295   97.578751   60.727104
H   13.397847   27.832348   35.269905
H   92.476692   18.197962   76.951447
H   41.168922   51.734901   69.493683
H   45.331833   32.102936   22.625076
H   32.692467   50.801575   53.246582
H   25.391100   16.788116   44.860329
H   90.683952   65.630791   85.852104
H   53.882092    7.318397   54.620922
