100
TIME:    9.655, STEP:  9655
H   64.393707   36.611916   90.306595
H   33.827866   28.054241   86.883720
H   45.731441   68.523323   10.004797
H   83.097168   34.865410   10.938554
H    8.682165   46.647812    3.919895
H   78.298706   90.748116   34.912636
H   46.950886   13.289317   45.486752
H   61.022339   23.882351   21.703354
H   16.289543   58.003082   92.339394
H   11.045115   55.016499   85.753029
H    2.170390   54.730911    9.728796
H   87.336357    7.645792    5.675994
H   28.082458   77.583839   65.619507
H   77.023834   75.316475   91.989342
H   97.875618    7.600624   86.591331
H   13.316051   67.267319   31.591839
H   47.709389   20.574455   52.321091
H    7.533560   25.026436   64.834549
H   95.648544   83.392441   72.026123
H   32.393002    0.779121   73.689903
H   91.334839   95.031868   95.189713
H   88.014603   56.901138   97.065872
H   56.834038   16.106192   56.109894
H   21.968807   52.330048   90.009949
H   84.266708   20.470421    7.840480
H    2.080756   41.474106   82.303673
H   29.517178   41.130215   91.534775
H   17.881067    7.102468   85.915337
H   21.109997   25.068991    0.775751
H   71.208717   51.878311   50.933174
H   96.039787   87.838318   45.506226
H   75.379959   85.754227    5.452351
H   50.443398   62.076584   67.595604
H   86.048462   88.899620   65.001579
H   40.669579   28.650978   12.470271
H   11.930143   41.654972   89.073219
H    5.839497   50.948494   69.241592
H   64.930733   82.263939    3.768619
H   37.531673   71.051170    8.671421
H   53.799778    8.313542   97.669632
H   75.400757   87.469223   69.812096
H   86.542824   79.466476   72.861809
H   94.378082   21.406883   98.864159
H   62.847309   74.708107   24.748158
H   19.150885   50.960026   82.315231
H   53.500710   47.065166   22.385851
H   17.176472   49.912998   18.149767
H   56.776913   94.813370   65.973862
H   47.253853   32.823101   59.334038
H   28.441549   77.695580    8.454819
H   45.042393   37.681633   51.822479
H   74.361938   67.827606   40.245583
H    9.136658   77.991699   42.125389
H   53.100792   49.676163   57.864510
H   72.049324    4.722394   82.457657
H    5.621050    2.377601   63.947800
H    8.337873   10.955530   74.258263
H    7.125010   65.091484   64.864525
H   51.749477   46.729454   70.271767
H   21.888866   69.904465   88.999428
H   68.749237   29.569414   61.622547
H   56.243095   38.074692   58.498833
H   29.544147   48.452332   71.402267
H    6.030993   94.357864   65.009613
H   15.545688   89.713875   94.696373
H    8.227957   62.294945   17.063807
H   12.929619   82.159821   33.206310
H   13.429006   69.717110   27.767441
H   38.106323   56.039612   54.689144
H   26.113007   33.589817   81.365524
H   15.434540   38.471127   46.338173
H   78.200890   31.016991   63.752010
H   77.468185   40.734081   14.193851
H   17.666920   38.355244   29.485765
H   27.561289   42.531719   33.350086
H   53.910233   26.367313   46.269882
H   43.663033   90.135178   61.979042
H   85.581490   19.412178   47.660423
H   24.506163   25.158939   25.407534
H   26.034882   83.065346   89.134438
H   99.828331   29.167765   57.049629
H   65.798119    7.091702   79.266045
H   28.573099   68.584023   49.437023
H   14.398099   38.358841   81.582146
H   82.213501   44.941216   11.810237
H   29.080936   63.700661   12.255822
H   11.990541    1.354706   83.930779
H   11.307049   32.474709   95.474075
H   56.053715   56.597145   49.225349
H   12.706859   12.042259   69.357559
H   19.145712   94.772675   37.358055
H   92.671127   21.627661   17.493555
H    4.357702   17.212233   65.640556
H   78.177773   98.762741   81.205742
H   89.660706   84.893501   37.946327
H   91.384979   14.467075   68.755569
H   96.234184   21.758827   81.919983
H   19.640924   64.188065   85.051292
H   48.771019   78.494820   36.330341
H   38.920273   30.872555   67.643997
