100
TIME:    8.973, STEP:  8973
H   10.514966   99.154945   90.930984
H   52.663620   91.097260   43.881649
H   34.008526   19.457367   18.010967
H   82.982697   62.962944   48.322594
H   14.793379   91.982773   22.410484
H   88.871704   91.486977   67.373016
H   82.694710   67.239113   92.153450
H   14.626190   64.879349   84.322746
H   33.054405   23.575089   35.268612
H   29.675341   45.223988   59.049965
H   65.608429   27.289433   75.424110
H   13.365669   73.460777   54.220909
H   71.571198   18.864517   33.395599
H   10.792487   77.418587   40.089756
H   89.592049   68.520241   19.389679
H   40.738937   26.917686   88.203186
H    2.551655   75.464302   90.235939
H   92.946274   58.212746   88.478104
H   85.023514   54.783314   36.093838
H   50.765667   15.262346   27.256128
H   31.806175   62.927742   13.702036
H   22.630594   55.995773   55.144440
H   65.939720   21.650251   75.622070
H   85.336990   44.171356   40.661205
H    8.659028   74.557159    2.806262
H    5.297857   61.579453   46.483059
H   88.327217   69.481705   78.006332
H   75.425446   75.269012   63.374725
H    6.279966   63.192715   33.012688
H   45.057198   68.757645   96.716797
H   69.201439   26.682304   99.463898
H   32.317890    4.599279   68.588524
H    2.402186   11.975189    6.155659
H   57.232880   51.400757   93.733910
H   57.642570   80.288002   70.978317
H   52.644871   88.235916   91.216957
H   40.426437   75.924080   15.502475
H   93.121925   94.741325   55.639839
H   66.320824   85.911644   74.762146
H   18.037489   72.161766   44.011810
H   22.010324   64.065018   53.744473
H   44.018387   76.790787   38.048458
H   88.508820   17.314529   49.601337
H    6.388921   63.260628   58.065716
H   78.314072   77.872292   23.955488
H   62.299400   34.057049   19.615122
H   11.844157   12.820395   11.600607
H   56.735287   87.788986   23.775532
H   27.320213   89.306679   86.537506
H   14.127247   67.309898   56.141499
H   42.885464    3.357899   48.017929
H   41.217251   31.110844   85.014320
H   94.991783   74.037231   81.735275
H   68.894257   60.805908   27.769295
H   26.351574   44.955940   76.661240
H    4.771620    3.094998   87.164688
H   65.099670   30.634544    9.394450
H   57.907654   29.498396   82.430687
H   97.959785   17.909941   22.627962
H   66.892082   17.482334    8.397118
H   25.724543   61.283405   14.790989
H   80.448601   44.422653   89.355019
H   83.237991   94.981224   18.164917
H   59.200825   90.642746   83.522766
H   88.476868   44.185604   31.185503
H   50.123268   96.199303   76.738152
H   67.647873   58.579899    0.277772
H   60.539276   30.713486   95.163895
H    4.113892    5.043770   97.460968
H   12.261962   99.336136   82.812027
H   37.093700   84.876549   54.517677
H   34.362686   53.661522   13.763524
H   21.935486   74.468346   31.681965
H   32.678288   81.518288   70.008492
H   94.710159   41.527493   81.640594
H   37.785370   82.658440   92.160507
H   81.722488   49.165073   49.881493
H   53.541592   64.004005    9.994117
H   91.801933   27.162189   17.795183
H   59.480888   20.217520   47.889214
H   86.476799   22.112162   16.287392
H   14.623150    2.664390   36.322922
H   85.436348   57.178501   84.486214
H   67.476021   79.998146   43.872005
H   15.420624   87.605515   77.921982
H   44.779133   38.647026   64.895554
H   66.441231   50.941963   51.410484
H    0.339536   87.046364    2.541893
H   41.900883   94.570442   54.803230
H   73.005753   40.103371   44.979202
H   91.234795   57.944950   22.955467
H   42.210033   70.334824    4.500871
H   60.640095   96.748741   12.900447
H   14.471292   57.554432   31.833136
H    1.451522   45.983463   22.275763
H   35.054626   41.397461    3.981695
H   50.367607   82.620918   21.142933
H   20.957346   30.444862   98.746239
H   81.260094   75.549782   93.454109
H   96.559723   48.371243   33.342541
