100
TIME:    5.790, STEP:  5790
H   25.768091   91.049736   93.845108
H   40.568794   18.614744   43.183796
H   79.286224   90.460175   55.380054
H   82.448441   94.101471   22.792885
H   43.310547   36.851456    8.715090
H   38.234402   94.935356   52.149929
H   49.515545   52.307095   43.238621
H   64.803711   89.510727   76.575737
H   11.298683   29.608597   35.626862
H   16.615992   99.519188   34.419651
H   61.683334   99.215988   82.027092
H   34.853111   13.913200   80.790764
H   74.595016   11.457481   49.698174
H   68.394691   87.229469   97.860741
H   50.926369   52.841202   72.453583
H   68.720428    5.314418   52.420624
H   58.509773   64.932838    0.474885
H   24.883215   13.096886   98.814980
H   35.448833   21.250330   68.400299
H   36.523949   82.855507   10.542688
H   20.689903   79.804749    0.094213
H   17.473282   51.770294   26.206268
H    8.438106   47.532524   66.691635
H   81.083855    6.093478   77.058090
H   22.500435   26.983757   79.300331
H   20.152235   55.493683   45.951813
H   62.801773    1.792534   14.848207
H   43.998188   26.697319   58.161659
H   37.069176   74.406158   83.476166
H   23.007324   47.537346   43.676651
H   43.928764   41.255955   51.292564
H   31.341251   92.541504   63.254753
H   78.197502   44.858040   19.405882
H   22.743069   43.103722   27.827032
H   36.848373   21.240103   77.298279
H   75.952515   38.926704    1.222726
H   35.135544   92.492310   64.694679
H   24.681705   52.995754   31.025761
H    0.673015   55.262199   83.218483
H   17.840502   70.143608   93.579430
H   39.545731   54.850037   78.755592
H   12.264422   64.308624   75.548210
H   61.113499   98.220856   19.692162
H    9.633427    9.827902   46.851151
H   54.415432    3.449587   51.576519
H    3.386372   73.352219    6.683699
H   86.969040   39.718399   81.043999
H   56.548634   55.005096   26.830282
H   34.277176   52.921249   13.507953
H   47.311535   18.858854   78.703537
H   43.104023   10.656183   14.463010
H   86.516090   26.470379   93.958473
H   28.974003   55.581116   66.596275
H   42.607536   12.731851   87.313683
H   79.786339   66.013840   49.595539
H    0.807179    6.443205   95.521530
H   63.311172   22.478996    6.664616
H   94.920563   30.093924   64.418320
H   46.921150   83.410515   66.982780
H   76.937943   72.827469   98.929222
H   24.938465    9.310757   62.960728
H   93.419502   74.049576   33.375114
H   67.144768   12.183615   36.432770
H   40.628616   73.303711   69.943665
H   62.139839   98.406052   34.766926
H   45.657036   54.434990   88.533318
H   23.026154   48.536648   46.603897
H   80.410774   48.673923   42.998081
H   45.475780   33.753853   97.093079
H   47.688965   39.362404   89.541046
H   38.174767    1.448996   92.692696
H   96.555557   59.366150   80.539017
H   29.472965   31.909042   13.291054
H    2.751205   82.969566   59.131248
H   41.330120   36.895275   40.319717
H   62.540794   78.658134    6.336499
H   92.649284   24.707014   93.447151
H    4.005061   72.127495   34.199928
H   39.164036   36.511669   82.281975
H   15.578047   93.610512   22.107372
H   24.173319   89.181870   26.043474
H   75.766891   82.019806    2.607073
H   84.105309    3.948325   81.354111
H   48.492004    7.621681   34.589893
H   70.404137   86.717049   86.476898
H   18.032795   21.729683   43.858459
H   53.855736   82.372612   99.632965
H   49.148125   41.752087   35.544464
H   75.841904   71.794365   80.836067
H   54.425533   71.060959   31.196432
H   60.973320   86.074768   55.736004
H    6.700265   30.942240   43.848274
H   56.603607    1.246709   66.754166
H    6.849218   64.445747   17.209719
H   56.486275   31.096737   49.133640
H   72.151840   67.090851   68.387863
H    3.019720   99.957130    4.200917
H   27.101290   72.946487   62.644951
H   32.890686   61.808712   60.064926
H   98.851227   30.054432   39.971836
