100
TIME:    8.666, STEP:  8666
H   31.275425   27.307592   91.212051
H   61.142471   74.462784   24.523621
H   28.731493   97.371201   21.614479
H   82.931168   75.610954   65.151314
H   17.544321   67.375366   30.733578
H   93.631104   91.819572   36.968864
H   98.785789   46.508453   68.145653
H   38.755783   38.320789   12.509854
H   40.601051   53.092133   54.594303
H   38.060829   40.815922   47.029671
H   94.164825   14.937663    4.996877
H   25.083817   58.072369   76.073860
H   91.147507   37.445381   63.903069
H   25.992552   78.364845   16.726070
H   85.863228   95.943001   34.152718
H   53.082458   53.768944   13.686985
H   27.238960   55.158237   62.288521
H   86.379044   73.151451   99.121170
H   80.240692   41.903423   19.920780
H   59.036060   21.781927    6.354143
H   50.023994   93.489166   22.034498
H   93.198204   55.588226   81.288345
H   70.038612   24.145891   84.405411
H   13.861189   40.498749   63.462757
H   19.638596   98.902237    0.540061
H    6.745937   70.629807   75.373474
H   14.799704   82.242142   71.916550
H    1.330351   60.939289   53.225868
H   99.604271   35.338985   47.525108
H   33.285179   76.355820   72.310822
H   57.118916   99.153206   23.752739
H   12.933737   13.080940   97.009071
H   80.778580   34.436073   78.498672
H   44.261642   79.535553    6.667181
H   65.282906    3.532212   52.299953
H   25.957834   64.190643   92.181953
H   10.981503   87.166756   91.312340
H    5.811323    0.358099   33.976608
H   79.278008   92.601036    4.512917
H   46.952812    0.900909   19.857042
H   42.991409   53.532021   46.511684
H   69.890594   75.586884   22.375916
H   85.866791   15.472538   27.427502
H   25.990971   58.105392   28.050114
H    4.944889   89.981590   97.683769
H   66.261436   28.202248   18.367887
H    9.443963   96.124092    8.652332
H   56.716549   84.626984    4.780439
H   18.347153   14.732574   98.782654
H    7.683203   62.635502   77.606499
H   42.906544   32.997536   44.780975
H   26.296835   59.599277    5.167018
H   88.625618   72.257141   99.564285
H   76.005249   65.815079   14.223041
H   50.795296   18.051420   74.052002
H    4.389252    3.417933   97.615692
H   45.638000   39.492836   80.196114
H   80.767761   58.490547   90.338036
H   73.745872    4.937463   46.197296
H   87.152321   93.885117   17.128929
H    6.358154   75.561157   38.726208
H   91.344627   47.280167    3.244793
H   62.396702   15.930532   39.216827
H   38.118465   88.970398   91.856400
H   76.292618   68.705902    2.595364
H   68.982857   11.460799   58.585911
H   92.278702   47.967281   85.456161
H   81.745773   13.155004   80.487518
H   88.813965   27.102837   16.715622
H    6.026869   83.914932   83.463165
H   46.844379    5.764935   58.199654
H   59.642311   63.854881   91.260422
H   41.952133   89.655327   39.554180
H   39.435604    0.949313   88.249733
H   79.921356   41.075443   58.363575
H   30.526819   62.983635   12.817925
H   53.840652   75.736572   44.435822
H   39.120518   84.076866   93.037659
H   77.078712   28.063946   14.368788
H   74.536705   36.941826   74.337608
H   80.466652   18.936106   97.937927
H   91.586044    0.671450   62.005409
H   66.019310   52.044346   55.249874
H   46.355797   53.727760   71.911430
H   30.368698    6.811102    7.682121
H   51.845623   27.369698   43.576630
H   45.937397   73.263359   36.771584
H   95.402153   11.611910    5.724908
H   35.530033   11.663561   57.314095
H    0.147457   52.734985   34.005882
H   78.671104   41.369030   16.472191
H   19.495142   47.245178   98.651665
H   40.960728   87.539116   89.159668
H   84.800644   38.929066   11.133593
H    6.759888   73.482712   15.222090
H    9.697707   53.520813   19.838997
H   74.736107   65.002708   38.799339
H   21.549929   15.254369    4.910036
H   95.884941   74.224083   19.168774
H   77.489334   56.248142   62.917805
