100
TIME:    2.208, STEP:  2208
H   68.004303   19.536362   97.124527
H   39.850746   24.458609   17.279867
H   17.708349   32.755844   97.416878
H   81.847214   41.681236   19.134781
H   75.394196   49.738453    5.837370
H   93.778572   98.816002   97.411034
H   37.249203   10.431599   63.121330
H   46.341850   79.621704    5.462111
H   99.351082   74.003159   61.102604
H   14.501749   48.086967   94.151573
H   94.872253   55.086140   27.064070
H   71.568817   34.366135   35.760689
H    2.812150   28.120476    5.672123
H   45.754112   98.270180   25.269718
H    7.357075   72.799835   44.636253
H   12.745533   18.609505   49.758560
H   46.547546   28.015572   74.386200
H   48.328598   87.325478   22.998322
H   79.654045   70.983139   79.688049
H   33.031036   58.922588   66.663551
H   33.250778   36.404194   97.315491
H   74.063461   47.015137   31.246658
H   56.264046   76.664696   69.176682
H   13.894432   63.163212   43.089218
H   50.612785   11.059975   52.852890
H   36.534718   61.815060   82.215919
H   71.681282   50.694286   43.781696
H   46.236977   59.501690   39.756542
H   59.181656   49.418831   52.798607
H   85.658302   36.192184   58.918148
H    2.958547   20.048681   34.692768
H    5.171709   91.508446   94.858467
H   25.885818    6.934850   96.711029
H   71.394371   71.372757   78.731827
H   25.887589   92.012146   59.178879
H   64.531570   57.935131   13.049546
H   91.575043   23.674768   82.447144
H   72.729118   18.541409   78.253426
H   51.873901   33.306763   30.340254
H   55.223866    5.477242   11.754618
H   84.348717   31.945616   94.364059
H   33.178741   10.953080    6.535422
H   30.259634   76.740662   60.958412
H   38.362984   49.777550   96.620773
H   65.126854   44.773510   45.055885
H   49.601315    5.030994   92.135719
H   58.979771   44.916656   46.650978
H   56.357334   18.116777    5.196446
H   29.572081   49.582165   56.397758
H   72.195641   64.356392   29.234226
H   43.376163   56.475487   76.697647
H   12.437651   58.854008   29.110798
H   54.682281   34.811462   74.633415
H   25.561367   71.183754   29.248682
H   64.982513   52.070644   19.141920
H   96.328934   10.211447   17.461273
H   36.229122   25.836342   65.986610
H   61.644623   68.369217   56.682938
H   64.415901   32.062817   41.974068
H   13.314257   97.501282    0.809775
H   98.982559   75.888741   42.242298
H   20.546154    7.391836   95.448486
H   23.999683   56.584389   82.080734
H   94.658508   53.805466   67.196419
H   19.960670   84.494934    1.187547
H   65.704323   32.506721   76.739540
H   10.416376   24.699636   73.664383
H   27.844261   43.815491   71.757767
H   66.950310   91.133537   21.750114
H   75.116516   59.200516   97.083710
H   51.918831   45.167610   35.665066
H   91.907654   78.245789   18.280714
H   63.025970    9.090755    5.131336
H   81.598808    9.652379   71.980553
H   68.626610   31.785421   68.779282
H   77.857994   49.085373   47.358723
H   67.427948   35.172005   30.099295
H   35.716183    6.344483   36.379833
H   67.392517   47.033138   42.312897
H   91.240791   88.701752   30.699928
H   54.090969   52.124432   11.955971
H    6.991302   58.647476    2.145452
H   57.503139   44.111084   40.200901
H    2.059771    1.103002   61.753448
H   44.818573   10.771744   33.711517
H    0.470905   90.158058   95.113350
H   14.622061   42.813339   28.829374
H   91.499603   28.516571   72.785652
H    1.503819   71.234337   10.135454
H   71.122330   18.431473    3.149574
H   14.383118   92.657486   80.090652
H   41.658421   61.566456   75.593559
H   26.953125   93.792587   89.731827
H   60.640278   47.164745   75.691933
H   18.416286   51.951118   66.824211
H   76.293320    8.540230   53.402924
H   87.341934   94.393257   10.205313
H   14.972159   35.037476   20.706932
H    3.529484   46.368114   60.095772
H   76.365585   21.988697   85.023590
