100
TIME:    1.986, STEP:  1986
H   83.017487   39.894943   97.327774
H   46.026070   12.422148    3.276524
H   13.892385   16.784817    0.021842
H   81.809952   50.827354   31.303352
H   77.382629   31.944172   11.856447
H   97.220222   99.056511   75.426476
H   48.883404   95.441139   45.760643
H   63.790611   60.415173   25.845879
H    4.808327   95.347488   75.076195
H   20.567827   44.899376   85.459373
H   15.522141   46.153431   48.447552
H   80.040833   23.238359   51.563148
H   16.933270   41.551720   27.736958
H   56.746391   98.954445    8.374805
H    4.656641   92.629974   55.308418
H   21.672314   38.026375   68.186295
H   64.396027   13.334358   54.174103
H   43.584473   98.121284   30.695457
H   76.195457   61.670609   67.991180
H   39.011581   63.636227   51.548744
H   46.424576   58.505619    3.341278
H   52.778507   46.721230   50.151260
H   59.228065   78.470207   75.528152
H   34.520622   60.500675   59.577637
H   58.552971   28.666252   51.215057
H   37.552647   68.430191    3.024863
H   90.823769   59.923397   39.376316
H   64.967972   49.139477   32.418385
H   54.354538   29.277163   63.292931
H   77.145638   41.686630   41.269527
H   94.225349    0.139804   52.258396
H   91.154541   97.643120   15.410072
H   10.248341   23.176846   76.711517
H   62.014519   91.717789   88.084579
H   31.406593    8.793801   45.661255
H   45.229870   40.494839   13.812570
H   70.281525   31.805498   64.954346
H   81.905724   22.604656   62.586620
H   61.439064   38.112755   51.778992
H   76.133888   26.260317   94.288345
H   99.521111   24.328085   89.133835
H   53.130829    0.989168   96.105820
H   28.347418   75.409393   44.923912
H   52.539467   46.056435   74.913986
H   84.384514   53.531765   26.057760
H   52.465405    0.796694   91.234657
H   57.050404   32.874474   44.593452
H   56.345478   15.831095   91.460381
H   23.083418   67.967918   65.254013
H   67.541283   60.977589   44.760609
H   43.393101   77.907890   74.356918
H    1.649465   79.453522   43.685307
H   50.077042   33.524231   87.526054
H   30.701824   74.804939   19.453020
H   82.654846   32.608044   17.258497
H   96.051163   10.444757   25.018677
H   22.155954   32.242012   44.872627
H   78.175385   89.334152   62.400955
H   46.907822   22.682123   59.018028
H   27.963367   80.438690    7.123605
H   84.978836   86.213692   59.550480
H   28.424519    9.458605    5.493089
H    8.941418   71.722908   97.310715
H   79.414978   52.597839   73.222694
H   11.149062    2.224990   80.513885
H   79.342201   43.543037   63.613171
H   28.228441   17.024519   62.946484
H   43.179253   31.119267   61.144886
H   55.885651    7.085022   35.674232
H   70.617981   48.033783   97.551178
H   58.968117   60.273026   38.328495
H   10.212737   85.613495    2.026812
H   77.500549   20.071178   10.823948
H   86.483513   23.701178   85.174675
H   57.923225   31.469542   51.950420
H   72.610832   34.856384   62.295689
H   47.271210   54.414421   26.172392
H   25.286221   20.860582   24.118954
H   56.748489   47.684422   39.835747
H    2.128099    0.791624   49.825478
H   49.746563   49.827740   98.687737
H   90.334671   57.197647   20.709520
H   43.457073   40.405212   19.056431
H   86.788948   82.106178   82.030731
H   55.627930   24.658440   55.231995
H    5.580663   82.004463   79.697060
H   99.795158   58.954544   18.243589
H   87.925842   46.290527   75.095894
H   96.896675   83.595146   11.951551
H   90.749222   27.565735   95.213234
H    5.297910   80.669296   75.402420
H   25.231325   44.871403   71.362633
H   12.709740   87.139633   72.557449
H   39.182468   33.697933   60.723160
H   22.255116   71.836487   61.722710
H   57.957047   17.306467   64.869446
H    4.963330   81.653053   22.972809
H   14.157054   33.147278   24.259521
H   14.104683   45.411160   78.692520
H   62.578659   27.690624    6.405356
