200
TIME:    0.453, STEP:   453
H   16.016291   61.768093   18.981745
H   29.862762   35.987720   98.544128
H   13.673349   78.461128   55.839592
H   25.022432   79.463356   38.929798
H   12.948668   89.127701   50.596073
H   82.689331   47.033840   59.244808
H    6.445212   55.153000   53.774143
H    7.661838   98.084229   17.511734
H   96.078674   84.312981   42.523285
H    3.363229   71.915276   87.670891
H   19.617872   99.144356   99.692673
H   31.658585   47.708118   22.891254
H   16.401997   94.076897   52.561852
H   94.336075   54.105595   52.529690
H    9.338209   73.584274   42.454510
H   23.091843   17.190224   49.728146
H   94.227539   17.694342    5.090567
H   31.504217   93.406548   39.728287
H   72.112312   21.990595   45.619389
H   90.733902   76.779564   29.213787
H   60.641296   87.391029   16.081982
H   85.287102   56.955925   62.366508
H   88.626846   60.992775   44.025391
H   13.119807   90.001129   90.918182
H   12.504585   21.270555   37.809940
H   18.484774   71.789116   99.921661
H    3.020559   63.070667   57.645935
H   99.398468   78.916138    1.291734
H   20.039742   50.055489   37.091129
H   83.424187   26.470341   91.257874
H   13.083404   60.348087   16.455229
H   28.052719   68.498520   98.847198
H   21.976730   13.568820   75.780876
H   89.377037   63.810303   42.013313
H   37.766804   80.999680   32.598904
H   26.103558   45.065456   81.918945
H   92.377945   69.831703   87.553993
H   22.379194   50.265083    5.590551
H   45.187080   38.773392   49.166248
H   88.040047   38.812580   55.376068
H   80.567688   95.273735    8.594219
H   23.941210   38.640408   33.515339
H   72.866714   82.888870   58.237453
H   36.806747   73.579033   26.366215
H   36.054661   82.793770   52.050453
H   38.062366    8.295211   45.004402
H   83.988052   15.776847    0.849303
H   84.930252   65.547356   39.990372
H   95.317802   20.669109   61.319901
H   54.495049   18.762728   96.701134
H   73.141296   67.800140   19.427353
H   12.995824   39.364117   68.121147
H   57.920864   88.327545   10.714105
H   19.236506   86.678619   84.857407
H   68.183060   71.647881   83.884720
H    2.575146   67.102737   85.622986
H    4.822609   17.551491   47.369755
H   69.735764   63.530956    1.459050
H   23.686649   78.592117   12.278131
H   38.176918   94.793129   63.056709
H   49.729679   11.220718   36.013332
H   93.764183   16.929464   50.698715
H   77.315407   29.618916   77.698898
H   29.286825   65.456223    8.423153
H   74.772377   79.254440   26.639523
H   30.384369   24.836342   36.691940
H   78.218849   18.669100   90.235786
H   96.148628   91.934196   91.488586
H   24.098927    8.731637   59.283829
H   44.010857   45.342438   50.971218
H   58.371723   80.276146   78.978806
H   26.154181   18.223091   43.273834
H   84.254044   29.345486   92.363365
H   14.804577    4.282810   66.773415
H   81.738632    4.319554   57.597466
H   58.697586   11.556753   61.485607
H   94.527298   37.879681   69.132713
H   18.665976    9.848553   40.684013
H   13.149933   39.183067   30.220905
H   65.066597   89.479027   84.160248
H   52.408314   26.502132   97.971512
H   36.002266   64.759979   81.272484
H   10.168697   16.002731   84.047607
H   17.728149   68.824608    0.793761
H   31.323246    1.576228   51.745907
H   30.668158   78.321793   23.348843
H   45.401638    3.227954    2.259643
H   73.560173   10.616752   19.476084
H   72.205124   72.575691   77.937927
H   22.377277   95.594391   52.522167
H   32.313923   36.731552   79.807076
H   82.571747   90.404282    3.015463
H   57.378136   14.459852   89.663475
H   50.476570   86.781235   74.953262
H   30.522135   54.044968   76.810989
H   60.451241   32.471539   19.046837
H   82.194954    6.911943    7.502594
H    1.039192   31.748552   50.610271
H   32.191475   67.644325   53.636089
H   70.907944    1.388554   27.302408
H   19.369474   86.315613   78.969673
H   98.492851   79.879066   64.689682
H   27.594687   29.385773   33.479347
H   32.110939   68.332748   98.620811
H   25.056385   24.673565   31.993233
H   95.855545   16.344460   33.918583
H   75.748306   32.741570   55.267944
H   63.496323   42.452496   10.505254
H   78.209641   37.400990    9.432224
H   11.209052   25.090590    6.579741
H   49.996960   94.215836    0.945712
H   94.546654   68.701599   92.937378
H   53.394588   82.746376   89.302322
H   62.502647   14.805330   69.461273
H   56.742241   90.838150   19.304285
H    5.345839   99.566093   88.543373
H   23.817486   11.441963   86.663193
H   39.690449   37.480560   29.720848
H   26.951488   65.710533   73.012512
H   76.403717   50.926022   57.288494
H   42.777657   23.174862   80.540192
H    9.098564   22.434216   54.453587
H   37.371590   12.839158   30.347794
H    0.939074   59.653873    8.537597
H   70.542885    3.678286   85.768494
H   55.525890   68.180130   21.418762
H   90.092186   50.184464   62.828705
H   70.769623   89.240532   36.801517
H   95.088943   44.773567   80.036209
H   78.069206   23.139776   70.130371
H   57.207153   77.580414   11.551273
H   73.524323   88.163956   14.350049
H   91.742226   92.957748   98.959587
H   90.476295   18.464157   52.328907
H   14.948523   97.518753   46.629143
H   56.684990    1.353485   80.543610
H   69.245354   87.107292   65.942184
H   93.035164   57.570389   79.832870
H   51.880692   47.312370   71.499710
H   43.563324   98.874245   89.539017
H   61.162678   56.804867   21.790421
H   47.432678   47.482632   51.212265
H   48.158306   60.681450   92.199852
H   47.952965   18.817446   81.654060
H   50.313938   62.702934   56.033558
H   53.744488   65.645569   19.644848
H   49.768944   95.845009   45.756775
H   36.836349   65.490021   67.602928
H   70.879486   55.899204   95.827003
H   16.251696   91.000259   82.026009
H   68.712440   64.927338   49.736198
H   42.753643    1.216089   41.477390
H   86.070747   23.874165   95.987343
H   15.540524    6.031843   70.688950
H   22.058792   59.504189   64.606918
H   69.825211   44.057049   60.614017
H   61.540844   67.271309   83.277878
H   49.074368   33.242393   14.714289
H    2.633209    0.931756   94.705688
H   61.291649   48.252991   86.415131
H   56.048214   75.755936   77.752548
H   33.603481   21.952478   33.698719
H   74.387947   25.283239   37.143486
H   19.093132   26.436958   62.085621
H   56.914734   29.315821   11.917420
H   15.583489   57.661980   61.137466
H   71.232071   94.121834   54.479721
H   23.818283   40.623615   56.820545
H   96.967194   27.477528   36.353977
H   36.193256    8.852325   88.004761
H   75.295837    8.166883   35.958199
H   38.804665   57.535648   58.112202
H   41.788410   68.301895   84.430801
H   68.603088   69.443085   79.181084
H   61.537994   93.434235   89.216171
H    7.483615   48.811394   23.491096
H   33.229599   59.574963   95.818176
H    3.617764    9.403992   67.603806
H   70.154366   16.428003   66.643623
H   76.168274   56.739937   89.389740
H   77.529045   92.822327   36.766926
H   23.523922   30.366055   77.392082
H   55.828552   89.944069   10.286400
H   56.119373   25.614563   85.026329
H   88.277443   79.095909   77.519302
H    3.719510   38.021088   85.020241
H   38.768768    0.876044    3.984711
H   80.188042   76.246895   32.979534
H    0.450051   62.123253   68.977753
H   53.486904   57.114643   68.394119
H   57.995590   23.977268   77.780403
H   45.906788   90.717667   21.911348
H    8.831717   22.591372   62.685459
H   31.382244   72.031822   37.605881
H   77.585083   44.741417   21.119539
H   75.848160   10.906106   26.648169
H   10.877114   91.367378   10.656049
H   22.719227   93.172897   40.959675
H    9.072906   12.207886   68.490959
H    5.786176   27.776419   94.789558
