200
TIME:    0.504, STEP:   504
H   17.583387   61.598835   19.853813
H   30.317327   36.732262    0.614545
H   12.604445   80.693390   58.351616
H   26.741570   80.059456   37.596161
H   12.407187   90.420288   49.862816
H   81.030212   45.649620   57.735298
H    7.184112   55.116814   54.761288
H    8.804719    0.286508   15.701459
H   98.149849   83.548401   41.279140
H    1.567938   71.200890   85.659248
H   21.395472    0.233822    1.304317
H   31.869476   49.069382   25.321276
H   17.653728   95.769478   50.471611
H   91.925606   54.320766   54.987240
H    6.875930   73.976875   42.329025
H   21.605289   15.088894   48.627968
H   96.626724   20.082924    2.614437
H   30.293243   95.858261   38.820324
H   73.809174   20.144222   46.370155
H   90.896156   76.079185   27.236774
H   61.253349   89.936905   13.745489
H   84.151711   58.905312   60.401169
H   87.099632   60.621964   42.801674
H   14.200044   90.466103   90.758263
H   14.721332   23.321692   35.990124
H   18.442556   74.052505   98.237251
H    4.008226   64.094002   59.696487
H    0.568927   81.019997    1.425930
H   22.187763   48.505318   36.792496
H   81.119553   27.836565   89.493698
H   13.016819   62.478794   16.517582
H   27.125301   69.693832    0.102826
H   20.744453   14.666225   76.403824
H   87.689125   63.865944   42.904739
H   35.319370   78.892319   32.210972
H   24.437630   43.902634   82.503761
H   93.841736   68.730942   87.936867
H   19.856567   51.584324    3.297489
H   43.299561   36.947155   50.299889
H   87.550949   38.602856   53.383881
H   80.582863   92.891281   10.287044
H   26.479692   37.570969   32.003105
H   71.948441   81.717293   60.131199
H   36.693130   76.056038   28.190214
H   37.797241   84.349777   53.890892
H   37.344673    6.967945   45.559063
H   84.949127   13.278198    1.967397
H   83.688637   65.546577   38.156937
H   97.290146   18.733730   61.356670
H   52.669979   18.992880   94.543579
H   71.928085   67.154625   17.406178
H   11.046291   40.241924   69.217628
H   59.296524   86.869591   11.380194
H   18.477470   87.754868   85.612648
H   66.024338   70.513657   82.235329
H    1.921362   65.846336   87.292999
H    4.677062   17.744484   46.822681
H   70.292953   64.716537    0.538558
H   22.610498   79.577316   13.511624
H   36.997364   94.506752   62.113922
H   49.564507   10.225695   34.523277
H   94.680901   17.050280   51.089760
H   78.720444   30.675417   75.978302
H   30.522507   65.528984    9.561852
H   75.592209   80.014740   28.724997
H   28.383718   26.817732   37.608658
H   76.313820   17.593338   91.289467
H   95.863029   92.050148   92.498299
H   25.913004    9.420829   58.638313
H   43.717281   46.231335   50.968494
H   58.349350   81.158234   80.342987
H   24.720837   16.882547   42.916836
H   85.872696   30.227184   90.655609
H   16.466093    3.161791   68.258217
H   82.359634    5.145125   55.199448
H   59.986671    9.756246   61.152344
H   94.311737   39.778290   68.411324
H   16.776997   10.777235   38.940071
H   13.537670   41.455212   29.091351
H   64.298126   89.194595   81.741608
H   54.572872   25.640181   97.214325
H   38.244839   63.842838   79.695854
H    9.969722   16.562159   82.555412
H   16.065042   70.492287    2.455928
H   29.507126    2.115531   50.300598
H   32.104996   76.537384   22.287186
H   47.687401    3.334227    2.376567
H   73.136055    8.718580   21.399693
H   73.766190   72.699814   78.121582
H   22.121834   97.880348   51.961086
H   30.176102   37.171818   79.580231
H   82.216499   90.851746    4.128263
H   59.800861   13.884666   88.210968
H   48.189640   84.948967   76.353630
H   31.814430   53.355095   78.935081
H   58.339211   33.611794   16.648916
H   82.886772    5.147938    9.699015
H   99.637199   32.540985   51.093143
H   31.035851   67.133438   53.816826
H   71.794701    2.217209   27.314859
H   21.644926   87.725708   81.371193
H    0.389293   80.650650   64.408363
H   28.651869   27.521891   34.191982
H   34.561485   68.426910    0.646105
H   24.988779   24.003342   33.646709
H   97.874580   13.847513   31.530855
H   78.164223   33.374828   55.030594
H   63.195744   44.410637    8.533154
H   79.505730   36.757225   11.898335
H   12.847354   24.379511    6.829348
H   50.667961   93.772652    0.981594
H   96.594482   69.984070   93.518303
H   52.508804   83.338196   88.193001
H   62.329887   13.705833   68.146118
H   55.040321   92.961853   17.516083
H    3.264503   98.074287   90.844116
H   21.720631   12.160094   87.257736
H   39.431698   39.990833   28.701408
H   28.888327   67.625290   70.491928
H   77.749611   51.943905   59.190994
H   43.309944   23.513767   78.869011
H    6.898026   21.226063   55.953758
H   38.601143   10.688169   31.860708
H    0.187667   57.818687    6.304235
H   69.016838    2.415550   84.081749
H   57.394344   69.575439   20.434050
H   88.824501   50.422592   60.859085
H   69.654076   89.640526   37.232250
H   95.716560   42.927486   78.873970
H   80.541153   22.898048   70.999229
H   59.265877   75.759430   13.500271
H   71.566765   88.669785   15.552754
H   91.575691   95.439034   99.338959
H   87.975555   19.771725   52.956524
H   17.467960   96.596588   44.285599
H   55.326645    1.288031   79.792259
H   69.329788   87.237251   68.481056
H   93.470177   55.978001   79.027046
H   53.213745   48.025589   71.487648
H   43.590950   96.428368   88.121918
H   63.687542   55.305084   23.437866
H   45.084854   49.032219   52.401157
H   46.518837   61.620152   90.479645
H   45.616035   16.971365   82.499184
H   52.711178   61.011520   57.701237
H   55.613136   66.524155   17.202278
H   50.975151   95.621666   45.391605
H   35.443764   63.591606   67.310326
H   72.242889   53.769859   95.320007
H   17.877449   91.557060   80.117477
H   66.914803   65.793472   49.351185
H   44.900497   99.804924   39.879166
H   88.439972   21.967190   94.197098
H   16.888672    7.202472   69.428658
H   24.081135   60.851055   65.529472
H   71.339195   44.183506   62.183060
H   62.074688   68.800858   83.881760
H   49.799454   32.424118   15.909115
H    0.299032    0.739593   92.814278
H   60.719868   46.172089   88.372299
H   56.549179   73.683983   76.396538
H   31.208933   21.688183   33.256897
H   76.583244   23.059635   37.122280
H   20.965185   27.935184   59.903748
H   56.426414   31.046339   12.418531
H   16.462173   56.039242   60.858677
H   70.353874   93.296944   55.020374
H   23.862835   42.944008   58.929462
H   97.660179   27.311674   36.233551
H   38.520653    8.467458   87.430450
H   74.321533    8.773391   35.953918
H   37.042824   55.641319   58.268814
H   42.773804   66.110489   82.995804
H   67.975082   68.223259   80.364334
H   59.167603   93.050583   86.818153
H    9.058202   49.086876   23.540026
H   32.705677   61.168129   97.951607
H    4.069766    9.452629   68.255936
H   68.850105   15.242387   66.047134
H   73.742241   57.287010   90.109184
H   76.597931   94.649925   35.581146
H   24.552603   30.428310   79.253922
H   53.480145   89.889984   11.296890
H   57.230057   25.708920   86.902565
H   88.936966   76.883881   77.309189
H    4.787173   38.451431   85.275490
H   40.544617    0.002453    5.114752
H   77.737885   78.407173   34.764137
H   98.973061   62.350681   69.560623
H   54.414322   56.837215   69.038467
H   60.431934   22.289940   77.416206
H   45.488701   92.103638   21.261747
H    9.964530   23.804680   63.853729
H   30.491304   74.067200   38.633686
H   75.834915   42.463436   20.952713
H   75.972672   11.031250   25.949444
H   11.216117   92.758018   12.377423
H   21.237051   92.159294   39.521370
H    8.392810   12.350588   66.210060
H    5.254253   26.048527   94.081009
