100
TIME:    6.580, STEP:  6580
H   72.343826   18.603090   93.121841
H   18.752083   61.426098   92.995277
H   92.871582   47.295204   46.104160
H   82.581039   61.554474   79.491211
H   36.234589    0.173445   87.295013
H   25.981060   94.079491   30.385365
H    8.113107    5.649882    5.017688
H    2.711273   57.854610    4.039414
H   91.878914   53.653244   85.899422
H   95.036232   10.863363   65.351357
H   88.199463   31.002951    5.930958
H    4.698921   53.511967   24.557186
H   24.183334   63.684948   71.199638
H   29.278233   84.794472   57.982037
H   60.526680   82.274803   34.470303
H   36.956970   36.218239   86.843262
H   94.982552   17.187313   72.391701
H   41.777515   74.656311   71.427284
H   47.750393   54.394020   10.022952
H   15.241829   66.075722   64.329613
H   73.810196    1.156794   78.649376
H   93.211349   52.819031   58.930496
H   97.889717   41.107506   44.089554
H    7.680721   15.544161   18.385126
H   94.246407   64.334213   85.134682
H   16.550970   32.138199   71.662788
H   94.677956   68.956009   30.524900
H   77.340012   63.571861   84.272934
H   54.246758   46.080853   46.131500
H   53.299244   27.985039    6.480050
H   75.021065   12.097281   88.790352
H   81.222534   70.710907   90.120522
H   33.843174   87.058556   90.575317
H   56.122658   70.705002   94.547089
H   17.198303   61.471718   25.383417
H   44.625546    0.802187   98.738899
H   10.906968   63.561646   26.943457
H   92.029549   38.536449   86.773994
H   67.330322   38.048454    6.661697
H   43.430836   96.185364   55.735996
H   85.555557   81.958443   97.367653
H   45.687469   67.406616   15.881070
H   67.914764    2.959352   76.753868
H   59.187115   23.087790   24.093496
H   85.889305   72.277328   19.178694
H   93.189476   88.420273    9.893194
H   93.140915   82.680435   88.626244
H   56.590824   63.141846   75.711044
H   57.367462   87.494545   81.995743
H   63.887493   30.884962   23.457979
H   43.049778   34.387360   22.789894
H   24.912479   53.165108   42.100258
H   45.362019   60.161804   20.712118
H   24.314919   99.841171   22.173229
H   16.885529   35.244530   56.315891
H    1.791141    5.612202   68.628067
H   13.396087   99.683052   81.800148
H   36.094879   55.487831   44.070419
H    9.228238   16.791576    6.336657
H   24.807007   33.548946   76.459740
H   74.771965   72.569962    1.368193
H   65.380867   66.696365   97.628601
H   20.776239   58.275795   82.260101
H   94.876205   77.607147   48.494450
H   93.493805   35.310352    8.335536
H   97.127808   15.161646   35.244797
H   59.642868   75.848602   84.744156
H   25.840309   93.853981   80.764648
H   84.848427   76.989502   47.547314
H   63.691238   79.097588   87.877533
H   13.087372   47.698196   83.217903
H   31.416334   33.147736   38.378593
H   77.962692   92.833466   93.035706
H   85.357536   32.971478   12.192518
H   79.418571   38.022366    0.206198
H   81.213600   29.288654   53.178108
H   64.387299   56.285839    7.438891
H   41.120693   20.469797   77.829079
H   77.047203   34.191189   91.093773
H   76.835800   50.576149   54.048271
H   39.633141   97.354782   73.260345
H   35.055046   87.143082   36.521801
H   34.074966   17.158850   56.590118
H    2.843610   75.223900   62.434757
H   31.938402   37.302628    9.895140
H   99.849045   50.749687   98.718231
H    6.618101   24.933189   37.303230
H   61.853508   78.536133   27.353470
H   92.235947   27.807989   74.374886
H   84.578445   38.557461   59.434052
H   93.303337   28.733307   72.419357
H   65.152267   90.358536   58.898247
H    7.244210   24.951733   27.846079
H   83.198372   12.373857   70.478302
H   42.828590   60.334267   67.287628
H   37.402634   35.893951   27.583572
H   40.312584   45.292297   58.767578
H   25.576403   12.037995   46.787331
H   95.257195   65.216240   93.892632
H   47.919445    9.781872   63.869213
