100
TIME:    7.549, STEP:  7549
H    6.814470   29.741253   92.234695
H   91.992233   13.932328   54.094761
H    9.531351   17.009216   34.726513
H   82.743683   21.631943   26.375893
H   27.553450   77.842979   61.020706
H   10.951949   93.029701   26.348553
H   57.325710   71.083237   80.794785
H   26.549782   41.685978   15.069158
H   68.059044   60.487823   24.903824
H   68.569710   24.777452    3.291904
H   98.065445   69.993011   12.591967
H   67.718811    2.083137   55.582817
H   62.375053    5.055361   74.907326
H   81.300087   81.807747   31.722416
H   72.296150   95.718948   87.870880
H   97.993576   51.465881    6.407717
H   17.061562   81.278214   60.603603
H   62.499767   27.504501   37.839783
H   62.839268   95.041840   61.070812
H   89.134476   45.500584   30.303598
H   16.308350    4.689851   52.348774
H   86.110321   54.105392   76.411209
H   84.952171   33.226692   16.364157
H   17.646631   27.136202   46.419731
H   59.588570   87.486420   92.290993
H   12.013165    3.558468   80.488396
H   11.119833   28.673403   49.753788
H   95.579430    8.801490   16.301706
H   75.316475   33.995991    0.327606
H   90.455872    4.001600   83.512688
H   13.155431   98.989578   12.126152
H   42.405666   43.939426    0.415350
H    2.097706   16.161631   77.870491
H   97.064445   81.901955   53.723587
H   93.081779   88.104820   84.339111
H   28.859058   76.698746   95.693031
H    3.846718   28.075396    3.297085
H   51.977127   20.800922   55.152313
H   26.426098   16.937017   12.758266
H   52.161507    5.470780   31.973764
H   19.330816   15.208432   20.195646
H   64.025337   71.206558   65.348259
H   76.253937    8.772089   46.745174
H   97.315369   39.352135   18.836899
H    1.836365   34.047131    2.097939
H   80.680717    6.901369   13.829905
H    0.711657   35.379036   97.926491
H   56.648373   73.122238   35.666866
H   85.695259    7.242625   43.341797
H   84.232666   45.634045   55.707077
H   42.983242   40.836609   33.003525
H   72.009888   63.248562   78.491882
H   65.462730   65.780396   64.436104
H    1.877518   84.035187   64.932816
H   39.732681   20.162914   64.558456
H    2.998029    4.592908   35.641022
H   74.824936   71.723167   73.960136
H   63.941574   63.977501   19.110136
H   85.646568   57.740757   31.949360
H   60.861336    8.028592   48.899071
H   35.897778   27.508564   25.816772
H   30.989174   57.677048   53.787079
H   86.562340   92.152496   15.812866
H   61.417309   82.885666   22.183178
H   31.954845   57.919125   98.574043
H   37.600311   66.990196   92.539642
H   81.897858    9.351814   31.528692
H   58.904701   49.273064   27.088455
H   33.143318    7.363327   86.772491
H   83.341026   27.811357   85.832291
H   82.317207   81.768021   71.596291
H   51.625088    0.942820    9.385406
H   14.782103   44.907589   68.195618
H   64.021675   71.642273   54.617401
H   26.113703   39.430691   73.671982
H    4.117838   91.392845   87.977455
H   52.393269   72.416084   24.623678
H   86.646072   57.110699   31.342646
H   23.515646   31.344929    1.903181
H   29.314556   97.789146   70.568123
H   58.599113    7.380227   31.176315
H    7.768009   93.427032   55.454174
H   95.365578   33.364048   48.872292
H   69.507469   58.143551   73.932121
H   84.756317   76.685081   15.961972
H   77.552109   86.341782   66.008667
H   71.335426   54.478676   83.508751
H   77.437706    0.995043   17.306541
H   12.346490   73.856117   66.449715
H   98.905243   98.687881   94.076126
H   32.958912   81.055382   92.882858
H   36.848454   63.236267   77.363625
H   69.358963   54.027943    2.780338
H   76.847389   71.161949   35.816204
H   26.075008   73.536758   89.554993
H   17.438080   97.630859   77.533165
H   63.398186    0.901537    3.038531
H   23.706003   59.982380   27.335768
H   49.096031   69.400612   12.728886
H    8.109554   84.913956   70.521866
