100
TIME:    7.620, STEP:  7620
H    2.013106   23.230446   92.169693
H   90.031326   17.779858   58.571804
H   10.751772   22.117054   33.892857
H   82.755600   18.706562   22.484142
H   26.917238   83.533943   59.095551
H    9.850835   92.952782   33.379974
H   53.604862   75.877167   86.347076
H   20.969322   47.828167    8.550090
H   66.313728   53.661484   20.434635
H   66.630470   25.796907    6.072053
H   91.461197   72.849869    5.752897
H   65.009293    5.641885   50.528877
H   57.847633    0.758027   67.851311
H   77.784538   81.588905   37.125744
H   73.158516   89.376877   84.456085
H   95.138885   45.255981    0.513963
H   11.352070   85.974640   67.067017
H   64.018112   24.049622   35.378899
H   63.944851   98.020035   64.811279
H   87.221237   43.993069   35.137611
H   12.095108   97.621582   50.421993
H   92.917160   54.199646   70.364899
H   84.004219   32.649254   14.332671
H   11.049696   27.985567   41.146408
H   57.049141   81.856125   92.815346
H   11.678402    1.465665   73.807228
H    4.997416   25.722021   51.162716
H   89.588371   12.115531   18.648565
H   76.860283   40.437733   96.971336
H   93.178391    2.244232   89.157066
H   15.949859    5.356266    6.508876
H   46.888668   41.977978   93.842522
H    7.098967   10.967123   84.266731
H    0.064310   75.395210   50.732391
H   91.314796   82.729118   88.658524
H   35.030903   82.259705   95.469856
H   10.656495   25.475027    8.891498
H   49.042809   19.501415   60.162376
H   23.428944   15.390230    5.878008
H   45.474380   98.823944   37.560181
H   14.478655   17.644400   21.868376
H   58.041862   71.484985   68.973228
H   76.864960    9.197990   51.873325
H   92.781448   40.543846   25.778889
H   95.677467   31.246067    8.173771
H   79.764183    8.255370   14.118353
H    1.266683   39.240181   98.607933
H   56.652706   73.853516   40.059948
H   87.771004    1.362560   40.509315
H   85.723389   46.714710   50.742516
H   42.978367   33.982101   33.752136
H   75.460434   56.660023   73.831207
H   66.935036   66.192078   60.312782
H    0.233497   82.877060   68.065933
H   34.079636   26.385002   65.161896
H    3.086460    4.518223   33.224014
H   79.326355   69.674507   80.712807
H   58.654709   57.272499   17.281130
H   91.246529   60.741161   26.498634
H   56.176285   13.486089   46.879662
H   40.376446   24.206711   20.281273
H   28.469246   57.016190   50.574333
H   91.382271   87.307648   10.944183
H   66.292778   83.272430   20.255314
H   34.773239   52.248203    5.186084
H   33.238647   63.460564   96.737717
H   76.201477   11.806334   34.956524
H   54.000267   53.333549   30.482666
H   36.682159    2.261730   82.319824
H   84.782997   31.377283   85.681702
H   80.062706   76.937256   70.744759
H   45.778660   98.585350   14.589528
H   10.152575   41.395832   66.375549
H   62.458904   67.148438   50.398743
H   29.533644   39.535236   79.055267
H    5.796459   95.943016   83.199776
H   58.841511   66.271187   25.882830
H   89.981781   52.468441   35.263920
H   26.920149   31.136379    2.695536
H   25.832863   93.921501   64.451393
H   59.989082    8.114755   35.419891
H   13.095639   93.887466   49.514576
H   99.856163   34.551426   55.634171
H   74.392403   64.219116   67.447044
H   81.299271   72.243248    9.079432
H   75.918381   88.949463   70.939102
H   76.077354   49.316399   86.894295
H   78.579582   95.313782   16.570389
H   13.820149   69.902885   65.869026
H   92.628174   95.767105   96.614471
H   35.864521   84.889442   94.382248
H   42.101734   68.576218   78.716759
H   73.910217   56.158398    8.270877
H   83.709480   75.469444   40.603634
H   24.847275   67.177353   91.186554
H   23.302383   94.827087   73.865944
H   57.762474    4.975971   98.955193
H   23.568956   63.495220   25.910318
H   45.713737   69.707207    6.781704
H   12.519564   83.091721   63.682499
