100
TIME:    7.662, STEP:  7662
H   99.172844   19.378983   92.131241
H   88.871353   20.055904   61.220196
H   11.473711   25.138592   33.399708
H   82.762650   16.976055   20.181980
H   26.540888   86.900429   57.956726
H    9.199471   92.907280   37.539536
H   51.403797   78.713013   89.631531
H   17.668205   51.461575    4.693740
H   65.281288   49.623367   17.790890
H   65.483315   26.399965    7.716644
H   87.554459   74.539841    1.707261
H   63.406357    7.747060   47.539223
H   55.169441   98.215775   63.677357
H   75.704918   81.459450   40.322079
H   73.668648   85.625229   82.436066
H   93.450195   41.582520   97.027618
H    7.974609   88.752808   70.890442
H   64.915970   22.005890   33.923164
H   64.599152   99.781784   67.024200
H   86.089462   43.101299   37.997169
H    9.602768   93.440552   49.282207
H   96.943741   54.255402   66.788208
H   83.443459   32.307671   13.130961
H    7.147284   28.488008   38.026978
H   55.546944   78.525528   93.125526
H   11.480373    0.227675   69.854988
H    1.375691   23.976133   51.996166
H   86.044365   14.075950   20.036848
H   77.773521   44.248341   94.985924
H   94.788895    1.204662   92.495995
H   17.602823    9.122442    3.186004
H   49.540585   40.817684   89.954369
H   10.057459    7.894314   88.050423
H    1.838964   71.546150   48.962952
H   90.269539   79.549126   91.213669
H   38.681934   85.549286   95.337837
H   14.684838   23.936781   12.200866
H   47.307014   18.732693   63.126076
H   21.655979   14.475229    1.807979
H   41.518616   94.892212   40.864822
H   11.608362   19.085394   22.857878
H   54.502342   71.649689   71.117577
H   77.226410    9.449932   54.906879
H   90.099411   41.248802   29.885418
H   92.034126   29.589100   11.767925
H   79.222008    9.056296   14.288984
H    1.595008   41.524239   99.011040
H   56.655270   74.286102   42.658672
H   88.998909   97.884041   38.833763
H   86.605225   47.353977   47.805733
H   42.975483   29.927240   34.194977
H   77.501602   52.762577   71.074188
H   67.805977   66.435608   57.873634
H   99.260742   82.191971   69.919327
H   30.735519   30.065674   65.518860
H    3.138771    4.474043   31.794235
H   81.989166   68.462624   84.707344
H   55.527267   53.306160   16.199183
H   94.559181   62.516048   23.274261
H   53.404846   16.714466   45.685081
H   43.025799   22.253502   17.006752
H   26.978584   56.625259   48.673836
H   94.233498   84.441681    8.064117
H   69.176689   83.501221   19.114887
H   36.440460   48.893574    9.097468
H   30.658592   61.372612   99.221085
H   72.831787   13.258303   36.984234
H   51.099052   55.735527   32.490509
H   38.775558   99.243889   79.685852
H   85.635994   33.486706   85.592621
H   78.729057   74.079620   70.241035
H   42.320210   97.190819   17.668066
H    7.413980   39.318455   65.298889
H   61.534451   64.490112   47.903198
H   31.556707   39.597080   82.239746
H    6.789445   98.634666   80.373543
H   62.655964   62.636055   26.627680
H   91.955017   49.722317   37.583546
H   28.934080   31.013012    3.164251
H   23.773270   91.633598   60.833046
H   60.811317    8.549264   37.930176
H   16.247200   94.159836   46.001011
H    2.512832   35.253819   59.634155
H   77.282082   67.813110   63.610836
H   79.254257   69.615685    5.008071
H   74.951950   90.492035   73.855698
H   78.882439   46.262657   88.897011
H   79.255058   91.953064   16.134918
H   14.691892   67.564354   65.525520
H   88.914978   94.039322   98.116028
H   37.583332   87.157478   95.269211
H   45.209309   71.735062   79.517204
H   76.602509   57.418667   11.518802
H   87.768745   78.017540   43.435635
H   24.121010   63.415398   92.151703
H   26.771408   93.168518   71.696602
H   54.428673    7.386199   96.539757
H   23.487886   65.573479   25.067095
H   43.712944   69.888573    3.263657
H   15.128302   82.013779   59.636372
