200
TIME:    0.889, STEP:   889
H   29.413431   60.321102   26.437075
H   33.748474   42.352818   16.244463
H    4.535190   97.544777   77.314934
H   39.718933   84.559425   27.528507
H    8.319544    0.178059   44.327442
H   68.505493   35.200115   46.339977
H   12.762076   54.843643   62.213261
H   17.432354   16.910275    2.035892
H   13.784447   77.776573   31.887060
H   88.015167   65.806931   70.473320
H   34.814606    8.457908   13.470680
H   33.461502   59.345585   43.666019
H   27.103077    8.547674   34.692345
H   73.728928   55.945103   73.539330
H   88.288406   76.940628   41.381741
H   10.383454   99.225998   40.322704
H   14.741286   38.113510   83.925842
H   21.151579   14.367146   31.966099
H   86.618813    6.206154   52.037708
H   92.121017   70.792015   12.312176
H   65.873749    9.155493   96.107170
H   75.580620   73.621269   45.564781
H   75.570663   57.822701   33.563812
H   22.354769   93.976196   89.551025
H   31.455254   38.805759   22.252293
H   18.123857   91.138878   85.521606
H   11.464140   71.819145   75.176147
H    9.405139   96.902069    2.438964
H   38.403221   36.803047   34.538105
H   63.721798   38.150658   76.175903
H   12.514171   78.563545   16.988287
H   20.124207   78.717270    9.582030
H   11.441971   22.950253   81.106468
H   74.947044   64.285980   49.634132
H   16.843044   62.983906   29.281784
H   11.857175   35.125122   86.913902
H    4.891734   60.421272   90.827187
H    0.812981   61.543297   85.987724
H   29.050636   23.161329   58.857761
H   83.858742   37.019642   38.344818
H   80.697418   74.906090   23.066006
H   45.642746   29.497524   20.586489
H   65.016373   72.873032   74.427124
H   35.835434   94.754997   41.959091
H   50.952015   96.096107   67.784401
H   31.926781   96.948471   49.746208
H   92.204300   94.415604   10.407908
H   74.315659   65.540703   24.316299
H   12.179503    4.123815   61.634247
H   38.892494   20.730303   78.256157
H   62.769531   62.281616    2.148548
H   96.329506   46.868511   77.494987
H   69.682213   75.862755   16.408136
H   12.747291   95.879486   91.313980
H   49.728104   61.951378   69.784042
H   96.986382   56.360554   99.899963
H    3.578357   19.201393   42.692814
H   74.499191   73.666542   93.588936
H   14.486614   87.014603   22.823017
H   28.092888   92.344887   54.996803
H   48.317616    2.714257   23.274252
H    1.600904   17.962317   54.041763
H   89.327095   38.650352   62.989372
H   39.851311   66.078262   18.157909
H   81.781136   85.754257   44.468861
H   13.280836   41.774803   44.528976
H   61.932716    9.472095   99.243721
H   93.707039   92.925468    0.120646
H   39.607101   14.623551   53.765305
H   41.501076   52.941635   50.947933
H   58.180454   87.817131   90.641220
H   13.900496    6.763069   40.221848
H   98.091934   36.883144   77.763725
H   29.009171   94.699326   79.467018
H   87.047592   11.377378   37.096764
H   69.718002   96.164383   58.636532
H   92.684464   54.110928   62.965256
H    2.517344   17.787876   25.775017
H   16.468380   58.603142   20.552086
H   58.495529   87.047417   63.483246
H   70.913162   19.133289   91.498306
H   55.174065   56.918114   67.793846
H    8.467651   20.785286   71.290802
H    3.510282   83.081627   15.003708
H   15.797199    6.186794   39.389935
H   42.951038   63.066849   14.272796
H   64.942589    4.136481    3.259231
H   69.934380   94.389694   35.920856
H   85.550705   73.636818   79.507996
H   20.193485   15.138047   47.725475
H   14.037704   40.495392   77.867775
H   79.534729   94.229660   12.528904
H   78.091194    9.542578   77.245964
H   30.925514   71.117142   86.925034
H   41.569275   48.147232   94.969894
H   42.395454   42.219601   98.547134
H   88.109322   91.830666   26.280029
H   96.142380   39.743435   56.206615
H   22.312019   63.276741   55.181210
H   78.488846    8.472762   27.408854
H   38.822353   98.370544   99.500313
H   14.704679   86.475349   62.284683
H   36.632561   13.451475   39.571678
H   53.060707   69.137741   15.935590
H   24.478420   18.943813   46.128838
H   13.117039   94.998207   13.505327
H   89.313599   36.934734   51.770561
H   60.926666   59.192684   93.646278
H   89.289932   31.897434   30.515049
H   25.214926   19.011564    8.713636
H   55.733364   90.427048    1.252470
H   12.052747   79.665466   97.903717
H   45.822002   87.805855   79.818710
H   61.025719    5.405768   58.218845
H   42.192497    8.993502    4.016582
H   87.552734   86.812614    8.212712
H    5.891195   17.581387   91.745956
H   37.478382   58.940933   21.005638
H   43.508976   82.079826   51.464958
H   87.909790   59.627926   73.553986
H   47.328194   26.072170   66.253235
H   90.286964   12.105694   67.278160
H   47.883064   94.450455   43.282455
H   94.515694   43.964832   89.444237
H   57.496681   92.883743   71.348480
H   71.498695   80.109398   13.000685
H   79.254723   52.220230   45.990387
H   61.232788   92.660088   40.483860
H    0.454468   28.991386   70.100204
H   99.201927   21.073240   77.558258
H   74.807220   62.012787   28.213291
H   56.789124   92.488297   24.632000
H   90.318520   14.169746    2.203573
H   69.097420   29.642578   57.694416
H   36.487087   89.635147   26.594139
H   45.072472    0.793919   74.120300
H   69.967186   88.218315   87.647049
H   96.754097   43.957031   72.943863
H   63.276993   53.409691   71.396591
H   43.799500   77.964394   77.424210
H   82.747795   43.983196   35.874466
H   27.361277   60.730083   61.376129
H   34.142452   68.705452   77.493767
H   27.974510    3.034929   88.879036
H   70.807991   48.243004   70.290573
H   69.720200   73.156616   98.763100
H   60.080833   93.935646   42.634933
H   24.931107   49.260437   65.101463
H   82.535248   37.695393   91.492683
H   30.150293   95.760361   65.709938
H   53.345554   72.331940   46.444710
H   61.107143   89.151276   27.814137
H    6.325379    7.571400   80.682503
H   27.065741   16.039740   59.914055
H   39.347839   71.019592   72.493851
H   82.768295   45.138134   74.029030
H   66.104691   80.347450   88.440475
H   55.273144   26.246941   24.928881
H   82.678070   99.288757   78.535980
H   56.403481   30.463245    3.146755
H   60.330975   58.042770   66.159988
H   13.131950   19.693010   29.921574
H   93.155586    6.273623   36.962196
H   35.097191   39.245323   43.432743
H   52.740082   44.110058   16.201408
H   23.095369   43.789162   58.754089
H   63.724350   87.069832   59.101776
H   24.199158   60.460697   74.849716
H    2.892143   26.059643   35.324451
H   56.090214    5.562084   83.094971
H   66.966492   13.351933   35.921608
H   23.742195   41.340992   59.451084
H   50.212559   49.566238   72.162979
H   63.234013   59.015568   89.296715
H   41.273468   90.154388   68.715469
H   20.941124   51.171177   23.921619
H   28.750580   73.196098   14.055653
H    7.482010    9.819794   73.178879
H   59.003471    6.292015   61.545029
H   55.428761   61.416878   95.540283
H   69.568932    8.447032   26.630114
H   32.318104   30.898281   93.308983
H   35.751968   89.481697   18.925102
H   65.614342   26.421219    1.066282
H   93.915718   60.185234   75.723038
H   12.846877   41.700104   87.202370
H   53.950531   93.408173   13.645454
H   59.241600   94.715157   48.236141
H   87.823006   64.067482   73.960724
H   61.415417   54.742908   73.902664
H   78.822762    9.552265   74.666878
H   42.332554    2.566471   16.357897
H   18.516270   32.964046   72.674469
H   23.765583   89.432304   46.392609
H   62.622707   25.267202   19.693338
H   76.912613   11.975965   20.674757
H   13.775254    3.256303   25.372114
H   10.047881   84.507584   28.663578
H    3.258760   13.427849   48.991508
H    1.238694   13.004722   88.732155
