100
TIME:    7.975, STEP:  7975
H   78.005608   90.675774   91.844681
H   80.226791   37.017872   80.954971
H   16.853876   47.657074   29.725315
H   82.815186    4.079659    3.025017
H   23.736181   11.988667   49.469772
H    4.345263   92.568184   68.537819
H   35.000622   99.846817   14.108555
H   93.067017   78.540398   75.956245
H   57.587151   19.529289   98.088715
H   56.934273   30.894182   19.973049
H   58.439957   87.134155   71.556442
H   51.459190   23.435909   25.259541
H   35.210533   79.269379   32.573650
H   60.206795   80.494698   64.142372
H   77.470345   57.666519   67.382111
H   80.865433   14.206442   71.046173
H   82.804909    9.455847   99.384064
H   71.607147    6.775561   23.073494
H   69.475449   12.913182   83.515732
H   77.655045   36.455494   59.307686
H   91.028923   62.281788   40.788090
H   26.951357   54.670914   40.133347
H   79.264458   29.763113    4.175363
H   78.065903   32.232391   14.780646
H   44.351997   53.703659   95.437111
H   10.004589   91.000473   40.399475
H   74.386444   10.964881   58.207355
H   59.633476   28.685736   30.382860
H   84.579323   72.646439   80.189873
H    6.790600   93.457901   17.378204
H   29.921324   37.189438   78.422462
H   69.303673   32.170734   60.978371
H   32.104839   84.993706   16.247938
H   15.064309   42.861488   35.776413
H   82.479881   55.850609   10.256639
H   65.890808   10.065011   94.353981
H   44.705082   12.473185   36.864040
H   34.371216   13.004192   85.214989
H    8.443515    7.656294   71.475655
H   12.037941   65.591446   65.492126
H   90.217194   29.824232   30.232023
H   28.124489   72.877121   87.098076
H   79.920074   11.327497   77.515511
H   70.111847   46.502403   60.487728
H   64.882561   17.240749   38.552643
H   75.181511   15.025104   15.560595
H    4.041813   58.545906    2.016439
H   56.674374   77.509903   62.025356
H   98.149727   71.959908   26.347450
H   93.177002   52.118038   25.920040
H   42.953991   99.708305   37.495193
H   92.713165   23.717669   50.527832
H   74.296562   68.250488   39.696175
H   92.010773   77.086426   83.731522
H    5.813179   57.496552   68.179092
H    3.528612    4.144797   21.138977
H    1.833277   59.431206   14.476432
H   32.220383   23.747156    8.136682
H   19.245472   75.741066   99.245041
H   32.751030   40.773571   36.782616
H   62.769787    7.697786   92.602669
H   15.869606   53.711899   34.510605
H   15.482886   63.083405   86.600769
H   90.668694   85.206253   10.616372
H   48.865227   23.893984   38.246338
H   11.431606   45.812401   17.728596
H   47.719574   24.079376   52.095501
H   29.478096   73.635979   47.453720
H   54.376366   76.753700   60.056007
H   91.992851   49.206913   84.928757
H   68.790199   52.783432   66.487099
H   16.545803   86.798241   40.610332
H   87.005890   23.836416   57.273075
H   54.645069   44.681591   29.305624
H   46.634506   40.057964    5.971570
H   14.189311   18.695099   59.311913
H   91.082726   35.544189   32.178627
H    6.659651   29.257153   54.870281
H   43.942665   30.093632    6.657299
H    8.424102   74.583275   33.867744
H   66.938927   11.787393   56.637772
H   39.733986   96.189636   19.816029
H   22.310720   40.488316   89.441528
H   98.817070   94.596924   35.024082
H   64.014038   50.035786   74.666237
H   67.749741    1.988078   95.591278
H   99.786995   23.505013    3.822054
H   84.288963   66.907715   12.889626
H   21.188446   50.136726   62.965584
H   61.242588   81.163223    9.304913
H   50.392567    4.059289    1.879263
H   68.368141   95.275970   85.482430
H   96.666489   66.809959   35.723572
H   18.019148   97.006920   64.540779
H   18.708607   35.377884   99.344360
H   52.623901   80.808228   55.529839
H   29.584032   25.347832   78.539009
H   22.883722   81.062050   18.783072
H   28.802269   71.240181   77.047905
H   34.569042   73.980545   29.483089
