200
TIME:    0.120, STEP:   120
H    5.783788   62.873249   13.287651
H   26.894720   31.126190   85.025658
H   20.652874   63.885773   39.437553
H   13.797540   75.571175   47.637665
H   16.484257   80.687866   55.383812
H   93.522400   56.071983   69.101677
H    1.620674   55.389275   47.328671
H    0.199486   83.704498   29.331821
H   82.555122   89.305237   50.646816
H   15.085445   76.579796    0.805680
H    8.010975   92.030708   89.169556
H   30.281586   38.819870    7.024475
H    8.228923   83.025337   66.209892
H   10.075832   52.700649   36.483334
H   25.415556   71.020821   43.273849
H   32.798161   30.910671   56.911659
H   78.562271    2.098355   21.258236
H   39.411758   77.398300   45.656750
H   61.032810   34.046215   40.717323
H   89.674477   81.352623   42.122517
H   56.644951   70.767960   31.338215
H   92.700539   44.227577   75.199020
H   98.598656   63.413956   52.015541
H    6.082383   86.990486   91.965675
H   98.030663    7.877652   49.692272
H   18.760427   57.011112   10.919867
H   96.572151   56.388920   44.257034
H   91.756378   65.179176    0.415522
H    6.014447   60.177193   39.041031
H   98.472092   17.549700    2.776792
H   13.518162   46.435825   16.048100
H   34.108212   60.693832   90.648720
H   30.022774    6.403408   71.713394
H    0.398161   63.446999   36.192825
H   53.747105   94.759506   35.131870
H   36.981087   52.658005   78.100441
H   82.820251   77.019028   85.054054
H   38.850727   41.651218   20.562874
H   57.511475   50.697643   41.764244
H   91.233566   40.181957   68.383881
H   80.468605   10.829381   97.540970
H    7.366417   45.623215   43.389336
H   78.862503   90.538582   45.872410
H   37.548599   57.406166   14.456573
H   24.677046   72.633957   40.033470
H   42.748482   16.961510   41.382793
H   77.712799   32.091240   93.547783
H   93.037270   65.552437   51.961624
H   82.439560   33.305996   61.079815
H   66.411423   17.259970   10.789343
H   81.062851   72.014977   32.624439
H   25.725367   33.632549   60.961227
H   48.940834   97.856377    6.358267
H   24.192558   79.651352   79.926125
H   82.278244   79.053696   94.654274
H    6.843969   75.306297   74.718781
H    5.772948   16.291359   50.941822
H   66.097641   55.789783    7.469292
H   30.713282   72.159348    4.224149
H   45.878712   96.663002   69.212555
H   50.808159   17.717638   45.742516
H   87.780624   16.140612   48.146534
H   68.141342   22.720583   88.933380
H   21.218552   64.981133    0.988270
H   69.419357   74.290131   13.022535
H   43.446884   11.899132   30.706314
H   90.657570   25.693192   83.355873
H   98.013420   91.177101   84.895760
H   12.254169    4.231620   63.498665
H   45.927731   39.538464   50.989002
H   58.517807   74.516632   70.071503
H   35.512836   26.976053   45.604824
H   73.685196   23.588512    3.513807
H    3.955947   11.602326   57.079433
H   77.683853   98.928932   73.255112
H   50.280617   23.313206   63.661621
H   95.934784   25.482882   73.842964
H   30.999897    3.784801   52.070930
H   10.618237   24.346975   37.596233
H   70.084259   91.336197   99.952545
H   38.275021   32.130157    2.914838
H   21.360046   70.748146   91.566948
H   11.467891   12.350001   93.790764
H   28.587259   57.935646   89.940399
H   43.181442   98.054932   61.182922
H   21.286400   89.972931   30.280838
H   30.476954    2.534056    1.496222
H   76.329414   23.010515    6.916065
H   62.017334   71.752205   76.729622
H   24.045174   80.668434   56.185696
H   46.273056   33.856876   81.288239
H   84.891304   87.482605   95.749435
H   41.559162   18.215477   99.147491
H   65.408997   98.744865   65.809685
H   22.084206   58.549431   62.941917
H   74.241554   25.026344   34.703739
H   77.677788   18.429716   93.161072
H   10.193567   26.574009   47.457401
H   39.737022   70.980118   52.455986
H   65.117943   95.977310   27.221109
H    4.512321   77.108521   63.289101
H   86.110023   74.841080   66.526527
H   20.691908   41.555328   28.825825
H   16.109682   67.717926   85.397049
H   25.497812   29.049728   21.197002
H   82.672432   32.648075   49.508904
H   59.973797   28.606760   56.817703
H   65.457985   29.666985   23.381727
H   69.746941   41.604393   93.329979
H    0.511926   29.733515    4.949954
H   45.615715   97.109566    0.711422
H   81.175537   60.327263   89.144279
H   59.178238   78.882141   96.545540
H   63.630669   21.984398   78.048462
H   67.854774   76.971619   30.980194
H   18.935696    9.307901   73.520874
H   37.508717    6.752948   82.781174
H   41.379940   21.089954   36.377190
H   14.305076   53.208302   89.470444
H   67.615822   44.279842   44.866287
H   39.302132   20.962009   91.452019
H   23.466862   30.322742   44.658348
H   29.343328   26.883602   20.469351
H    5.845309   71.637367   23.120102
H   80.507072   11.923209   96.781944
H   43.325985   59.068890   27.848356
H   98.369423   48.629623   75.689163
H   78.053490   86.628807   33.989086
H   90.990974   56.827389   87.624947
H   61.928848   24.718117   64.457237
H   43.764900   89.470367   98.825485
H   86.306023   84.861191    6.497121
H   92.829597   76.756416   96.482513
H    6.804791    9.926212   48.229889
H   98.498001    3.539887   61.931107
H   65.554184    1.780859   85.449486
H   68.694046   86.258736   49.364845
H   90.194786   67.967262   85.094429
H   43.176636   42.655472   71.578468
H   43.382942   14.845279   98.791840
H   44.676800   66.597900   11.033715
H   62.762589   37.364738   43.449497
H   58.863075   54.552280    3.431713
H   63.211739   30.871643   76.135902
H   34.661373   73.746872   45.144596
H   41.543312   59.908012   35.593391
H   41.893120   97.303307   48.141117
H   45.929115   77.885551   69.513451
H   61.977268   69.802048   99.137390
H    5.620879   87.340042   94.484322
H   80.449959   59.271984   52.250111
H   28.736094   10.430075   51.912857
H   70.601105   36.325588    7.677342
H    6.737704   98.388077   78.917915
H    8.854084   50.709942   58.582039
H   59.939781   43.231358   50.369095
H   58.055157   57.285107   79.334885
H   44.339981   38.585251    6.912755
H   17.873976    2.186488    7.055008
H   65.024696   61.840057   73.635971
H   52.777206   89.284569   86.606499
H   49.238262   23.678173   36.583557
H   60.053951   39.801727   37.281948
H    6.869963   16.654423   76.333069
H   60.103172   18.016554    8.645460
H    9.846206   68.256996   62.957798
H   76.966179   99.507881   50.949574
H   23.527386   25.472816   43.050556
H   92.442406   28.560453   37.140289
H   20.996727   11.365285   91.754669
H   81.657471    4.206741   35.986145
H   50.308449   69.903900   57.089615
H   35.354370   82.610489   93.800491
H   72.700157   77.420868   71.464432
H   77.015259   95.939255    4.873464
H   97.202286   47.012657   23.171618
H   36.650501   49.172523   81.888130
H    0.666471    9.086418   63.345776
H   78.670418   24.169176   70.538345
H   92.008842   53.167870   84.692192
H   83.608673   80.889183   44.509369
H   16.807241   29.959560   65.235367
H   71.159439   90.290268    3.694984
H   48.868004   24.998095   72.775612
H   83.971146   93.539154   78.891220
H   96.748222   35.211197   83.353615
H   27.173788    6.580098   96.606461
H   96.186127   62.141712   21.327709
H   10.093491   60.638279   65.171951
H   47.431412   58.926083   64.186905
H   42.087696   34.994530   80.158394
H   48.636650   81.668091   26.152861
H    1.434995   14.669181   55.057343
H   37.200123   58.741501   30.894812
H   89.012650   59.615292   22.208817
H   75.035172   10.088989   31.210430
H    8.663627   82.287315   99.416458
H   32.396988   99.791130   50.350960
H   13.513537   11.276125   83.383888
H    9.259377   39.058140   99.415970
