100
TIME:    6.075, STEP:  6075
H    6.495228   64.913719   93.584183
H   32.697548   34.059345   61.155025
H   84.187271   10.963996   52.033688
H   82.496277   82.359833    7.170762
H   40.757828   59.695465    0.987940
H   33.813892   94.626595   80.374260
H   34.579746   71.551659   65.525993
H   42.403275   14.167169   50.408146
H    4.292839    2.206828   17.686941
H    8.830633    3.611638   45.578556
H   35.173325   10.683302   54.574150
H   23.974701   28.198780   60.503822
H   56.408524   94.222633   21.379082
H   54.282982   86.351021   19.549915
H   54.392326   27.383789   58.754169
H   57.261459   80.387245   28.763248
H   35.591835   83.784691   26.419561
H   30.977995   99.229752   88.934608
H   39.886738   33.207230   83.416550
H   28.846222   76.802040   29.946833
H    3.777597   51.432507   92.357796
H   44.796509   52.148636    1.935924
H    4.632642   45.214638   58.537720
H   54.603512    9.502901   55.891865
H   12.307843    4.381104   81.405128
H   18.853045   47.067970   19.152088
H   38.224785   89.946304   20.503653
H   19.951202   40.000160   67.582413
H   43.266151    0.263851   70.003723
H   33.934849   40.483665   66.333664
H   55.146378   66.811653   28.744270
H   49.336399   84.665909   36.870857
H   98.271355   24.006178   45.080933
H   34.785606   16.985100   15.821207
H   29.763908   99.695686   94.653534
H    0.727350   61.248863    0.326433
H   62.469643   82.055298   87.151649
H   12.902506   47.779423   51.136578
H   88.644257   49.052177   55.599541
H   90.996384   43.462322   16.002390
H   20.068325   64.628349   85.470070
H   88.245987   65.426254   90.099144
H   63.568371   99.929916   40.277641
H   91.434845   14.611532   74.716637
H   29.694832   92.204239   75.964340
H   99.708488   78.788162    7.841555
H   89.195602   55.217361   83.779366
H   56.563854   57.940506   44.464481
H   42.607216   29.318382    2.138699
H   53.288898   23.196737   58.769417
H   43.084454   83.141251   17.467190
H    0.366848    0.024436   75.250130
H   34.886135   57.233643   50.043079
H   36.008301    8.081401   99.890282
H   57.094536   90.988739   52.019970
H    1.162164    6.143413   85.819458
H   81.380165   14.255385   33.770592
H   73.698639    3.178442   57.077621
H   69.398209   95.452217   45.104195
H   58.130257   94.732147   90.823143
H   42.916645   96.056900   40.740765
H   83.304298   71.396835   20.478882
H   86.492378   92.735634   16.889465
H   60.200188   74.856216   62.206722
H   73.451309   75.644669   61.307377
H   28.149189   40.266747    5.384910
H    0.159384   58.388752   60.363358
H   60.723961   64.973061   56.622730
H   59.680988   13.275566   79.219696
H   53.461937   53.698074   88.940918
H   29.124660   82.057861   89.274574
H   73.054886   49.907608    1.404424
H   10.889648   17.812553    5.982971
H   96.476845   64.930931   42.197197
H   55.070011   37.301884   61.924332
H   69.277489   96.922905   87.158966
H   18.525223    0.004982   98.487358
H   17.394878   53.491852   49.940247
H   52.829998   35.674534   85.460915
H    1.601795   78.085457   97.554588
H   29.750597   92.130325   43.077168
H   97.158417   83.868027   78.767113
H    2.131124    8.714246    8.495214
H   68.098824   32.010399    8.560266
H   56.527260   68.891502   58.849258
H   11.472698   32.198242   63.649643
H   72.890236   61.650795   13.222952
H   53.731712   18.945665   32.589485
H   81.756210   55.925758   78.505135
H   29.226793   59.335850   41.383476
H   72.636681    1.464896   61.754681
H   27.787378   52.377197   49.277695
H   74.872726    9.798497   88.793655
H   34.392879   81.736397   36.426865
H   51.559135    5.567398   55.682865
H   95.691650   55.836273   53.667328
H   80.397575   16.312246   87.810318
H   26.551172   87.049500   56.924164
H   19.313873   63.037235   36.192436
H   16.553438   22.740913   12.516042
