100
TIME:    9.315, STEP:  9315
H   87.386871   67.791725   90.617874
H   43.218124    9.629326   65.446953
H   39.887173   44.061958   13.996305
H   83.040100   48.872978   29.575281
H   11.728811   19.395309   13.138302
H   83.569702   91.116463    1.241170
H   64.769142   90.331001   18.898312
H   87.745667   94.468277   52.922073
H   24.647392   90.692596   13.740774
H   20.332911   50.134602   72.440651
H   33.796417   41.050186   42.479683
H    0.311586   90.603569   29.876694
H   49.763062   98.164589   99.408875
H   93.858856   76.364449   66.116844
H   93.745979   37.971107    2.943457
H   26.987698   97.004868   59.814514
H   75.050087   98.086525   21.369551
H    0.262531   41.570930   76.621658
H   90.351608   69.130661   54.110729
H   41.552395    7.999491   50.541100
H   11.511261   28.879721    4.418924
H   55.418468   56.449783   26.019958
H   61.373528   18.870092   65.837372
H   53.560650   48.262665   15.260969
H   96.427353   47.434990    5.330791
H    3.684655   51.497299   14.298643
H   58.836983   55.264889   84.790390
H   46.568687   91.232422   74.678154
H   13.716914   94.221947   16.846981
H   58.171303   60.293228   23.904144
H   82.659966   57.349079   72.405945
H   53.912067   95.149673   36.927849
H   26.493050   86.952988   36.965721
H   71.682922   20.058411   79.325615
H   49.131187   54.393776   91.784500
H   82.374695   15.023259   90.141945
H   73.228088   63.399666   42.450825
H   78.984993   88.484337   79.774529
H   51.884243   78.459618   41.619415
H   85.824402   40.144287   70.920364
H   98.637756   75.801437   61.801846
H   15.196560   78.131943   55.506969
H   91.452057   19.366707   74.304222
H   84.553993   69.001320   91.505440
H   48.648216   64.382454   53.223118
H   57.887154   40.580181   21.004549
H   14.517989   31.420454   14.885004
H   56.756161   91.311478   44.936573
H   37.316261   60.980907   72.896332
H   21.305471   72.517967   32.227695
H   43.148777   70.362862   51.184357
H   57.838192   99.375763   62.564308
H    2.084280   76.020264   61.873466
H   60.973564   55.224716   42.860847
H   99.120247   74.927475   79.567947
H    5.197580    2.735248   75.522202
H   86.782562   20.766350   41.921532
H   32.441345   97.199944   73.621849
H   24.933109   32.361320   96.372536
H   44.324322   43.770557   98.669838
H   47.300076   45.380009   88.128212
H   68.310356   41.239365   73.882149
H    6.455555   71.644066   94.712952
H   82.684631   92.505753   74.239044
H    2.050409   16.869335   63.034077
H   29.113743   79.197411   96.959862
H   40.208969   70.403839   16.790314
H   36.915100   50.272530   11.513474
H   21.159761   80.469849   76.012909
H   19.207794   16.513552   82.086655
H   26.232075   61.606960   50.415932
H    6.200051   42.306053   38.831509
H   99.636459   57.550945   22.912266
H   25.150593   59.872425   49.687630
H   11.184106   42.031078    7.571186
H   45.871445    4.576464   69.146896
H   12.783385   19.563099   55.948006
H   69.607674   41.642708   28.882500
H    8.202600   26.157627   21.612520
H   42.708611    1.586544   18.425529
H   93.172142   25.650309   36.728279
H   40.286003    4.884538    7.711359
H    7.067576   62.897984   17.056194
H   91.006264    9.263739   12.636568
H   98.768372   66.209641   44.768814
H   36.907017   51.210579   88.644974
H   89.282631   26.075783   67.718315
H    5.839430   59.680519   98.996719
H   48.998051   75.528114   52.006111
H   42.767895   26.031670   57.203552
H    5.231026   76.412384   30.177879
H   67.514572   96.056839   11.016351
H   82.563034    7.010054   39.347832
H   47.236610   78.280563   55.333248
H   95.538696   15.348225   30.133528
H   63.302399   27.892366   86.316910
H   23.221363    2.247644    1.473562
H   20.297205   47.365986   91.878685
H   64.967918   77.026619   64.809731
H   17.802567   39.596325    0.395795
