100
TIME:    9.361, STEP:  9361
H   84.276031   63.573280   90.575760
H   41.947678   12.122051   68.347221
H   40.677868   47.371437   13.456278
H   83.047821   46.977837   27.053865
H   11.316618   23.082413   11.891106
H   82.856567   91.066628    5.796717
H   62.358341   93.436928   22.495571
H   84.130157   98.448074   48.698364
H   23.516624   86.269897   10.845243
H   19.076326   50.795094   74.241737
H   29.517609   42.901108   38.048561
H   98.556053   92.909325   26.602486
H   46.829803   95.380135   94.837372
H   91.581177   76.222664   69.617241
H   94.304695   33.862160    0.731362
H   25.138004   92.981552   55.996155
H   71.351051    1.129173   25.557112
H    1.246261   39.332558   75.026932
H   91.068253   71.060196   56.534054
H   40.313183    7.022615   53.672997
H    8.781467   24.300322    3.170295
H   59.828533   56.510849   22.102631
H   60.759361   18.496153   64.521301
H   49.286404   48.812958   11.844538
H   94.782089   43.786842    5.670337
H    3.467657   50.141220    9.969824
H   54.870171   53.352551   85.702866
H   42.687508   93.379547   76.198479
H   14.717216   98.395470   14.672657
H   59.935188   59.154739   27.560890
H   84.470177   61.473820   68.766571
H   56.816547   93.878525   32.669395
H   29.733391   83.587357   41.109764
H   73.626495   15.842777   77.387657
H   47.986382   50.910927   94.582993
H   86.373444   18.626310   89.997353
H   77.640259   61.715096   46.075459
H   77.083534   87.642754   83.020836
H   49.942425   77.457298   37.161621
H   81.491547   35.837753   74.539383
H   95.493927   77.380020   62.885586
H   11.319855   78.312332   57.855190
H   91.847931   19.642731   77.627037
H   81.617226   69.773415   96.003242
H   44.658241   62.567753   57.159748
H   57.293694   41.457561   21.191431
H   14.877627   33.922352   15.326765
H   56.758968   91.785263   47.782795
H   38.660759   57.171322   71.061554
H   22.270941   73.218468   29.011383
H   43.404972   65.941566   51.270691
H   60.073757   95.107483   59.544716
H    3.038409   76.286987   59.201668
H   59.908424   54.474030   44.890755
H   95.457710   78.958511   79.958908
H    5.254873    2.686860   73.956253
H   89.698975   19.439049   46.296501
H   29.016207   92.855858   72.437035
H   28.561077   34.305244   92.841255
H   41.288937   47.306400   97.361488
H   50.202099   43.240955   84.542183
H   66.677727   40.811203   71.801003
H    9.578525   68.505150   91.558594
H   85.843201   92.756332   72.990356
H    3.876260   13.195217   67.317802
H   26.288052   76.910606   99.679741
H   36.518356   71.994354   19.011314
H   33.737579   52.903267   13.712540
H   23.452532   77.164581   73.128082
H   20.142029   18.823870   81.989090
H   24.771236   58.476818   49.864235
H    2.412128   40.778709   42.203106
H   96.637222   55.275723   21.732716
H   24.138096   56.961277   46.954414
H   13.399842   42.098812   11.058861
H   46.959045    7.524638   66.051498
H   16.961227   15.581547   56.763969
H   71.768837   38.635048   31.423042
H   10.408422   26.022511   22.125963
H   40.452690   99.080666   14.462612
H   94.072685   26.126200   39.477638
H   43.737617    5.183154    3.863036
H    9.977160   63.667271   21.437130
H   94.171150   13.200106    8.435232
H   96.528595   63.331917   40.309616
H   35.848194   52.900414   91.839340
H   92.354866   22.731209   69.911766
H    6.579193   55.999733   98.520126
H   49.952641   72.966866   51.629890
H   38.700710   24.138985   58.847763
H    7.113621   78.896423   31.149315
H   70.918106   99.516525   11.892678
H   85.511734    8.390348   42.905083
H   51.422768   81.051682   58.833645
H   94.743439   11.227695   31.190420
H   67.101807   26.076014   83.940964
H   19.570232    4.887418   98.828033
H   20.208414   49.641911   90.954979
H   62.776573   77.225258   60.956699
H   20.659668   38.416073   95.964645
