100
TIME:    5.706, STEP:  5706
H   31.448435   98.752983   93.922012
H   42.888741   14.062718   37.887012
H   77.841705   84.416779   56.366352
H   82.434341   97.562164   27.397209
H   44.062927   30.118486   10.992579
H   39.537289   95.026360   43.830807
H   53.917675   46.634762   36.669712
H   71.405945   82.243271   84.287956
H   13.363564   37.684830   40.914673
H   18.910624   98.313072   31.130625
H   69.496811   95.836044   90.118706
H   38.059380    9.702850   86.770073
H   79.955246   16.537331   58.044853
H   72.553932   87.488380   91.468712
H   49.904823   60.344498   76.491058
H   72.097809   12.661502   59.393280
H   65.264534   59.377033   92.828033
H   23.086859   17.184029    1.726913
H   34.140820   17.726191   63.974461
H   38.786858   84.639687    4.823617
H   25.674583   88.166809    2.374092
H    9.420120   51.658783   33.359650
H    9.559787   48.215691   69.094894
H   88.888359    5.088595   83.296310
H   25.504509   33.645592   78.679970
H   20.535154   57.977051   53.850525
H   70.044983    5.284414   13.181467
H   51.085560   22.776482   55.384773
H   35.242699   66.784943   87.446991
H   19.786636   49.616325   36.998795
H   40.622520   33.723820   57.938377
H   26.037418   94.862732   71.031059
H   72.280998   51.003975   11.838498
H   19.193615   50.801842   31.365591
H   38.936325   27.590155   72.182861
H   68.650452   32.347542    1.486905
H   27.078983   95.568481   58.075787
H   28.153294   54.533199   25.098362
H    4.218827   57.092522   91.358803
H   25.752352   78.007072   86.970787
H   45.286636   51.968048   76.776588
H   19.343548   63.979256   71.259514
H   60.389957   97.717133   13.624795
H   14.997021    8.417990   38.638412
H   61.701473    6.763675   44.388531
H    4.470345   71.750046    6.342436
H   86.312790   35.150284   80.237785
H   56.544147   54.139923   21.632833
H   31.822006   59.877884   16.858856
H   45.549786   17.580320   84.579025
H   43.109791   18.766062   13.577489
H   82.433754   34.265041   99.472511
H   27.231480   55.094055   71.474571
H   44.552574   14.102509   83.606895
H   86.474449   58.652348   48.880970
H    0.702547    6.531565   98.381088
H   57.986191   24.902763   98.675423
H    1.175411   38.026680   66.581894
H   40.296486   79.861382   73.431206
H   82.481461   66.371353    1.318373
H   19.639439   13.217014   69.510307
H   96.400826   74.831436   37.176109
H   61.442028   17.915762   42.192902
H   34.860153   72.846130   72.223877
H   58.805397    5.114978   26.944269
H   50.817314   58.610893   83.566582
H   29.765854   45.632870   42.548477
H   86.213203   43.869968   38.982395
H   41.288982   39.789558    2.361250
H   45.987457   35.137154   89.717926
H   40.842064    7.164425   93.700142
H    3.481846   62.153931   74.389236
H   34.949982   36.063797   15.445015
H    4.600140   88.286217   64.122337
H   37.280468   36.775433   33.952042
H   60.554741   73.274834   11.988508
H   85.022942   31.987608   91.961617
H    0.058579   77.619743   29.560678
H   35.136173   36.758404   81.345024
H   19.697250   98.186317   29.344067
H   22.529490   88.312851   21.023226
H   69.462021   81.475067    9.633784
H   78.792503    2.543660   73.354782
H   42.713287    0.433528   42.261738
H   74.494164   91.970894   94.619781
H   19.966297   18.644218   38.025269
H   48.245567   88.480095   95.627533
H   47.797173   48.474163   36.415405
H   74.098740   76.471428   81.523079
H   61.852566   74.516525   28.193640
H   57.535698   81.538696   53.962078
H    0.485116   24.624872   42.248024
H   51.219025   98.726509   60.258320
H   98.731026   59.349560   11.545844
H   57.938484   38.621181   47.203342
H   65.213791   70.407990   72.726547
H    9.687162   95.136513    9.031949
H   27.263430   68.789810   64.331200
H   36.892273   61.446621   67.100746
H   93.633270   32.209965   48.064091
