100
TIME:    1.259, STEP:  1259
H   32.180824    6.564642   97.993362
H   66.248863   73.007210   57.417568
H    1.396257   64.481529    8.557144
H   81.687927   80.778831   71.154411
H   83.894302   73.671928   31.567726
H    8.493343   99.844124    3.428192
H   86.986137   46.352001   88.908211
H   20.931381   97.522110   92.596474
H   22.679375   65.245667   20.837141
H   40.434044   34.460732   56.993011
H   83.145920   16.900822   18.476561
H    7.786289   86.797997    3.312493
H   63.175926   85.536018   99.995049
H   92.743629    1.195544   53.051403
H   95.814171   57.565922   90.253189
H   50.902878    1.614389   28.532700
H   22.845230   65.256668   87.984581
H   28.048531   33.475632   55.899216
H   64.869362   31.170023   29.691538
H   58.596519   79.077744    2.051240
H   89.565796   30.879997   23.073200
H   83.068901   45.761673   12.053117
H   68.934563   84.382851   96.327789
H    2.066772   51.781467   13.569529
H   84.555290   86.324989   45.851524
H   40.886135   90.095093   71.166016
H   53.514435   90.141861   24.949690
H   26.310745   15.205529    8.387919
H   38.546814   63.318272   97.659477
H   49.268581   59.679703   83.475731
H   65.627235   34.945419    9.785885
H   45.251133   17.728729   82.712151
H   59.041042   76.367989   11.217618
H   31.297615   58.342873   18.711630
H   49.477409   63.749397    1.394078
H   82.019775   83.384903   16.312292
H    0.553924   58.429054    7.669580
H   11.955372   35.910877   11.286268
H   94.119888   53.632057   21.457428
H   44.609505   94.319572   37.089504
H   49.201790   99.382530   72.006027
H   18.469444   68.364098   61.950047
H   22.085340   71.049789   92.412361
H   98.964256   33.870621    3.832744
H   47.446228   82.216599   63.846252
H   61.844654   86.930275   88.283882
H   49.373951   93.656006   38.381294
H   56.306652    8.345999   46.477703
H    1.834341   28.178947   94.251480
H   52.295048   49.912182   95.609459
H   43.448566   48.095436   66.691559
H   66.317940   46.913525   91.410355
H   34.995918   29.308838   29.748524
H   47.535664   86.663506   87.373306
H   40.531288   68.876434   11.089607
H   95.141525   11.208797   49.767471
H   76.066147   53.219139   75.728783
H   32.310486   57.990761   81.126175
H   89.571892   91.963852   14.828854
H   75.937027   24.558630   27.800621
H   39.119793   20.022949   16.234779
H   54.226776   16.226761   38.389404
H   59.631195   21.299229   47.185890
H   29.492151   48.643135   92.957390
H   82.294594   60.290867   12.809049
H   24.002785   79.684486   20.627256
H   86.556351   91.890015   27.847462
H   93.397896   89.540207   26.390081
H   19.649910   59.322617   81.270485
H   55.889343   11.466635   99.082031
H   82.052940    9.738306   47.047703
H   70.155960    9.741636   48.800224
H   24.902905   56.029591   29.465969
H    2.480501   69.708786   28.382484
H   22.873730   30.435106   96.838188
H   55.424793   88.262840   11.215377
H   81.264336   17.425009   13.311594
H   91.130432   68.399071   83.970001
H   21.899393   49.814304   31.726757
H   37.781876   40.386421   12.457141
H   35.519611   42.306591   55.235912
H   35.786839   52.449783   81.500443
H   97.458412   28.270170   49.813358
H   36.778057   19.895853   48.434273
H   91.026138   70.134018   25.706413
H   22.314564   55.301472   29.212181
H   51.240486   11.813377   83.577011
H   76.222580    4.496117   82.655235
H   81.810005   24.072878   17.899303
H   55.025742   57.478386   69.222008
H   75.545998   41.413868   60.049511
H   71.440208   90.195229   57.509903
H   66.063820   65.352707   16.314459
H   68.915688   89.600380   11.706975
H   34.825794   36.956284   45.016441
H   97.909790   46.014091    2.419794
H   62.668808   39.931759   64.782852
H   11.487767   26.957306   35.892525
H   48.736107   42.277348   39.590336
H   17.429581   46.365284   76.426094
