100
TIME:    5.160, STEP:  5160
H   68.372719   48.823006   94.421890
H   57.968391   84.476654    3.459583
H   68.452332   45.134705   62.777287
H   82.342697   20.058517   57.327080
H   48.953400   86.354263   25.795567
H   48.006054   95.617882   89.758232
H   82.534218    9.764774   93.971725
H   14.320473   35.007366   34.419910
H   26.785286   90.180344   75.284081
H   33.830070   90.473320    9.748381
H   20.284393   73.866409   42.712063
H   58.900124   82.334892   25.634291
H   14.796707   49.555244   12.298340
H   99.588997   89.171303   49.919113
H   43.264778    9.115638    2.734940
H   94.050781   60.416580    4.715702
H    9.170622   23.265018   43.123505
H   11.410953   43.749538   20.653543
H   25.637169   94.820404   35.210651
H   53.495766   96.236855   67.649422
H   58.075005   42.523407   17.193390
H   57.074570   50.933960   79.856628
H   16.850594   52.656273   84.716080
H   39.619595   98.556854   23.846283
H   45.032379   76.946274   74.647621
H   23.024130   74.116333    5.195248
H   17.125925   27.981384    2.347383
H   97.156471   97.291077   37.335014
H   23.370598   17.247663   13.256435
H   98.851303   63.129692   93.594185
H   19.133183   84.762619    1.136162
H   91.562874    9.948373   21.576973
H   33.820454   90.952553   62.650505
H   96.123230    0.839610   54.368248
H   52.508011   68.863632   38.935791
H   21.187521   89.581718    3.204060
H   74.709595   15.565166   15.052983
H   50.718616   64.526375   86.568489
H   27.266918   68.989616   44.269684
H   77.178612   29.121105   44.012669
H   82.602524   33.235123   63.913067
H   67.869072   43.441727   45.218586
H   55.686939   94.442932   74.185402
H   49.859371   99.253174   85.253464
H    9.064302   28.304695   97.665184
H   11.515995   61.335926    4.123797
H   82.047165    5.455719   74.997398
H   56.514988   48.516296   87.849510
H   15.863403    5.099358   38.639587
H   34.098415    9.269850   22.767296
H   43.150944   71.478714    7.821602
H   55.898567   84.930115   35.317772
H   15.905087   51.928162    3.183722
H   57.195320   23.012611   59.512779
H   29.948509   10.802341   44.236271
H    0.022439    7.105904   16.968231
H   23.373810   40.657249   46.746437
H   41.830948   89.589088   80.645126
H   97.235710   56.791840   15.346615
H   18.512646   24.402668   16.847908
H   85.197144   38.608074   12.082355
H   15.777891   79.913528   61.882576
H   24.372343   55.174118   79.633759
H   97.367104   69.871857   87.045258
H   37.131523   48.723911   76.097252
H   84.359123   85.754265   51.282799
H   73.571930   26.757732   16.186996
H   23.929436   12.642970   12.880439
H   14.074871   79.021645   36.606651
H   34.927658    7.674562   90.867645
H   58.179497   44.313934    0.248601
H   48.501099   80.274506   34.412582
H   70.549622   63.069702   29.445763
H   16.618038   22.842957   96.564415
H   10.956264   35.996456   92.560638
H   47.645393   38.280319   48.726391
H   35.449314   79.312202   82.305641
H   74.406509   13.320225   99.406075
H    8.954787   38.362179   75.254845
H   46.469086   27.928391   76.382660
H   11.845003   82.664230   88.390388
H   28.486588   77.926285   55.301659
H   44.256889   93.412781   21.355734
H    5.150137   53.711594   92.131073
H    1.079398   26.123619   47.548225
H   32.534061   98.588844    0.109117
H   11.779470   28.178894   69.592224
H   39.013382   92.172943   42.081764
H   62.768173    6.872068   85.988655
H   10.124936   96.977707    8.675880
H   35.191154   52.055920   42.431561
H   60.086643   83.560837   31.846395
H   16.219240   82.347176   18.035297
H   45.961853   26.224417   74.730049
H   67.377846   87.528069   34.656406
H   20.116470   91.969391    0.928024
H   53.025658   63.802502   40.432846
H   25.805761   60.171997   73.462654
H   62.902588   59.093029   12.832397
H   59.717075   46.219044    0.660882
