100
TIME:    1.665, STEP:  1665
H    4.725548   69.332352   97.621658
H   54.955254   95.018288   83.027977
H    8.374708   93.691277    3.790257
H   81.756073   64.052147   48.899624
H   80.257797    6.214604   20.559387
H    2.197304   99.404274   43.636425
H   65.706078   73.767174   20.658028
H   89.020576   32.645557   55.320023
H   12.699120   26.210541   95.280739
H   29.339048   40.290291   72.890923
H   45.380783   33.237217   79.367844
H   92.290909    7.148532   74.412651
H   37.351784   60.972572   59.640709
H   72.640633   99.943855   83.947304
H    0.751830   21.302631   70.738724
H   34.578873   66.104118   94.831802
H   90.203964   92.106094   24.949465
H   36.724724   13.731859   41.824020
H   71.194527   48.203362   51.080013
H   47.659126   70.454208   29.693552
H   65.473175   90.461060   12.053722
H   21.999027   46.297546   77.483742
H   63.513878   81.080879   84.712036
H   64.344978   56.650791   83.417007
H   70.034050   54.123978   48.846840
H   39.024517   77.996124   33.112228
H   18.503605   73.266495   33.006374
H   92.054306   34.156277   21.807985
H   47.374786    0.154142   78.467155
H   64.836784   49.631302   15.751353
H   81.598122   71.353836   77.658661
H   70.886322    6.511954   45.126671
H   87.638016   46.662636   47.793304
H   48.451759   21.135292    1.608060
H   39.385643   33.059029   26.115501
H   17.320015   15.277929   14.915860
H   39.494202   43.560890   39.660709
H   95.174599   28.479893   39.935490
H   75.869217   44.965157   82.544754
H    6.369406   56.312199   69.033890
H   21.457176   13.313548   81.571213
H   81.980469   86.583794   81.024658
H   25.582457   73.484451   21.738350
H   73.037895   40.675903   43.528744
H   12.229492   66.196152   98.588211
H   56.606724   94.674110   89.931770
H   53.660938   15.557361   41.850533
H   56.328335   12.526121   71.598701
H   13.701161   94.554649   78.057571
H   60.810169   56.091763   67.211266
H   43.417591    8.898325   70.972351
H   86.049232    9.239153   64.759171
H   43.418114   31.662964    6.168545
H   38.134647   80.040977    5.289022
H    8.208706    4.467336   14.534840
H   95.649521   10.782112   35.946274
H    1.806491   41.504265   14.342915
H    2.077930   19.648869   70.668900
H   21.592140    9.118449   83.660721
H   49.145077   55.766285   16.253014
H   64.730209    1.142869   84.579185
H   39.817047   12.447041   20.017929
H   87.168762   93.612389   19.332863
H   57.372917   50.851677   81.936363
H   98.407967   27.862980   50.619862
H   99.061836   59.500954   44.633144
H   53.982681    5.927213   47.448986
H   65.352821   12.760072   45.799229
H   39.886101   30.150040   55.807755
H   64.113342   31.887300   98.227112
H   69.161003   82.113945   42.178379
H   36.680340   96.266800   78.525749
H   98.430008   35.948277   19.055157
H   93.546532   44.015427    4.252693
H   42.447769   31.012796   27.616581
H   65.023720   14.283091   83.895988
H   18.125818   82.236313   20.494303
H   10.205058   41.850616    6.390687
H   41.361198   48.624851   36.255257
H   17.870926   18.274088   77.479988
H   43.464787   46.506847   79.501991
H   66.250854   55.101273   47.551468
H   23.147221   35.046722   88.482971
H   64.708443   54.637798   11.350594
H   71.257675   44.738083   86.349442
H   12.969303   70.214806   57.405937
H   78.356300   82.293854    2.936685
H   82.758377   71.990707   78.436378
H   90.235298    1.468145   14.577530
H   19.129799   40.773384   83.737053
H   92.161171   63.335117   68.623489
H    1.480120   20.729677   65.244942
H   92.114082   77.519821   47.724228
H    8.155790   14.226769   39.081032
H   27.805855    0.588211   54.346214
H   31.443787   29.981451   81.449417
H   30.442139   63.231411   41.433640
H   12.978456   30.414154   29.396374
H   29.395313   44.027454    5.582480
H   42.643509   35.935886   37.322823
