100
TIME:    7.268, STEP:  7268
H   25.816832   55.510353   92.491959
H   99.753006   98.705025   36.375759
H    4.701052   96.793495   38.025913
H   82.696518   33.209747   41.779133
H   30.071413   55.319592   68.639984
H   15.309880   93.334129   98.520218
H   72.053055   52.108730   58.820217
H   48.635826   17.376751   40.870491
H   74.966560   87.504745   42.592381
H   76.244728   20.742708   92.289345
H   24.203369   58.686298   39.658966
H   78.442398   87.998047   75.585030
H   80.293434   22.062946    2.833117
H   95.213737   82.673866   10.337414
H   68.883125   20.819237    1.385576
H    9.292461   76.043091   29.733782
H   39.657845   62.691097   35.023067
H   56.490528   41.178040   47.579338
H   58.463650   83.254898   46.267460
H   96.706589   51.466946   11.171793
H   32.983292   32.665047   59.974483
H   59.170578   53.732361    0.340967
H   88.703926   35.512047   24.404703
H   43.756111   23.774630   67.289871
H   69.638985    9.770645   90.215736
H   13.338070   11.841270    6.931169
H   35.350956   40.354988   44.177608
H   19.289280   95.685387    7.012916
H   69.206474    8.502041   13.610037
H   79.680832   10.956818   61.173668
H    2.095817   73.790649   34.357979
H   24.663082   51.702343   26.428871
H   82.305428   36.720421   52.555794
H   85.191750    7.653903   65.561981
H    0.075058    9.380409   67.243973
H    4.432777   54.689880   96.576302
H   76.894302   38.366333   81.155365
H   63.590416   25.944042   35.323753
H   38.288074   23.058809   39.988815
H   78.628639   31.777227    9.865209
H   38.534805    5.567427   13.575603
H   87.706413   70.104614   51.003490
H   73.835663    7.086479   26.449253
H   15.258015   34.635643   91.362175
H   26.210979   45.133030   78.052315
H   84.308128    1.542579   12.688299
H   98.515915   20.096767   95.229515
H   56.631222   70.228027   18.280163
H   77.479988   30.514233   54.552040
H   78.332764   41.357044   75.354317
H   43.002537   67.965012   30.041420
H   58.353497   89.322250   96.937653
H   59.634113   64.151062   80.755165
H    8.384132   88.618759   52.532730
H   62.106003   95.537315   62.168552
H    2.648044    4.888493   45.206924
H   57.010303   79.831245   47.234779
H   84.865646   90.514198   26.348879
H   63.487556   45.865917   53.520882
H   79.405357   86.430634   56.891380
H   18.171507   40.575760   47.724876
H   40.962410   60.292557   66.501892
H   67.486275   11.327504   35.081879
H   42.120426   81.354950   29.813175
H   20.801414   80.361633   72.406090
H   54.862671   80.959587   75.924728
H    4.442870   99.637177   17.961275
H   78.315208   33.202690   13.655028
H   19.137482   27.554199    4.395446
H   77.634071   13.698240   86.428284
H   91.239952    0.886985   74.966438
H   74.764763   10.273427   88.787849
H   33.104538   58.806232   75.398987
H   70.208855   89.427734   71.313782
H   12.578443   39.016926   52.366306
H   97.475075   73.384422    6.885788
H   26.872547   96.736031   19.640276
H   73.444183   75.484383   15.823251
H   10.041249   32.170315   98.767845
H   43.095078   13.096900   94.776588
H   53.097969    4.473153   14.381265
H   86.681496   91.604752   78.962959
H   77.592979   28.664709   22.110489
H   50.175671   34.098019   99.598412
H   98.438431   94.264732   43.201225
H   84.017990   76.021240   46.495255
H   52.568073   74.909660   70.109627
H   72.918449   23.480917   20.220047
H    6.514187   89.502007   68.747932
H   23.749643   10.249477   84.029999
H   21.459248   65.881142   86.948654
H   16.057299   42.102097   72.008263
H   51.346256   45.596142   81.050179
H   49.690102   54.113976   16.868830
H   30.934067   98.705673   83.097687
H   94.228561    8.726903   92.047096
H   85.702904   84.775452   19.199589
H   24.248400   46.079449   32.977150
H   62.482292   68.187187   36.266323
H   90.655022   92.125900   97.590240
