100
TIME:    3.345, STEP:  3345
H   91.113922   15.267677   96.083572
H    8.222542   86.105499   89.001633
H   37.252274   14.556777   84.075310
H   82.038055   94.835320   56.813511
H   65.210190   40.874004   75.008179
H   76.151741   97.584206   10.012194
H   77.658089   87.207893   52.036293
H   56.975891   77.986557    1.066454
H   71.401451   64.685272   89.531029
H   83.431282   64.412605   38.677101
H   89.111282    0.836064   17.542490
H   28.171196   91.358398   54.828102
H   30.487305   59.330246   92.663383
H   89.456429   94.765633   11.795429
H   21.188709   71.238480   89.981087
H   67.029221   19.163300   55.377296
H   55.122169    3.217376   77.896896
H   72.623131   32.033440   83.578308
H   97.367622   18.679430   39.589367
H    2.400948   34.781116   44.075768
H   65.779678   23.211868   66.451187
H   83.068756   48.524521   34.420609
H   41.083458   67.417549   36.646851
H    8.254807   76.799713   58.645802
H    9.948190   20.883820   61.243385
H   31.320704   27.940142   75.643700
H   73.636444    3.428417   66.343483
H   50.299999   12.572983   77.340599
H   83.904327   52.576401   99.053108
H   29.254791    8.051099   49.306244
H   47.702793   22.008421   44.733192
H   76.962593   60.090050   89.600670
H    5.974203   23.745937   99.140968
H   19.435467   67.173470   30.830673
H   97.622681    6.063745   28.415558
H   63.389996   47.252735    9.140618
H    0.628458   82.034164   72.038261
H   25.737083   97.732323   58.487682
H    3.877676    8.536154   20.156809
H   48.131474   99.035065    1.211463
H    6.645132   70.956940   21.152449
H   30.991631   61.985664   59.952026
H   40.053280   83.558914   43.086277
H   65.758194   68.833496    7.790676
H   66.500633   99.916290   42.351864
H   34.932529   26.717548   96.750618
H   67.867477    6.749741   57.572327
H   56.418056   29.823179   75.547585
H   62.804558   55.415764   11.039929
H   96.033501   81.653587   49.709965
H   43.289417   46.705582   88.685974
H   67.693451   53.348778   54.469952
H   78.263329   41.404175    8.596455
H   99.233635   52.632095   79.422455
H   74.459274   51.731720   28.797911
H   97.751572    9.016027   78.755112
H    8.311126   93.027931   74.124748
H   76.980705   60.993698   27.396732
H   54.088936   80.102875   54.686520
H   38.283005   84.895767   68.470833
H   70.705788   23.014812   53.592434
H   80.194023   96.807297   44.004608
H    1.151871   79.026176    4.093796
H   72.735527   59.990471   36.324337
H   65.093361   93.684120    7.074147
H   95.856667   75.983009   43.966309
H   19.192970   64.005157   28.559523
H   49.303795    8.840941   26.112944
H   23.616058    9.435951   50.440891
H   98.156311   16.386049   94.689514
H   15.813122   67.805962   22.023060
H   98.157089   40.511185    1.526514
H   88.890869   52.847630   75.983147
H   56.578106   37.701141    4.406267
H   23.447889   33.407001   54.971836
H    4.733232   21.955393   70.852478
H   70.660042   36.624191   50.207478
H   89.134506   31.998808   99.170563
H   21.918219   43.693409   55.003868
H   35.480324   26.777454   32.746384
H   76.336563   63.887218   79.911804
H   92.303101   66.072952    7.070372
H   29.436972   63.091156   48.494572
H   80.280334   98.397552   57.901909
H   89.455139   39.653202   23.492073
H   74.308105   31.921043   74.070114
H   90.559700   60.144173   83.045761
H    9.800734   37.485458   60.955704
H   25.102112    7.928322    0.833290
H   70.596344   71.654495   43.792686
H   60.913788   54.050976    4.102090
H   25.788939   47.068161   97.262764
H   99.875717   27.883505   77.678429
H   70.535439   16.131210   52.354019
H   98.755943   50.105534   92.952171
H   70.204865   63.640816   94.675148
H   97.092346   59.643261   44.815773
H   19.145185   44.718353    2.513521
H   49.365288   51.269276   64.859108
H   46.980999   92.796242   75.505737
