100
TIME:    1.056, STEP:  1056
H   45.909096   25.180641   98.179214
H   71.895668   62.001392   44.612362
H   97.907990   49.876659   10.940697
H   81.653854   89.142174   82.280754
H   85.712555   57.400581   37.072044
H   11.641212    0.064345   83.325005
H   97.626167   32.643864   73.033348
H   36.886780   79.959091   11.235039
H   27.669502   84.763229   33.615341
H   45.981728   31.546074   49.043190
H    2.028483    8.732968   38.030281
H   15.534771   76.622597   17.761774
H   76.089447   97.817741   20.171358
H    2.795023    1.821391   37.602451
H   93.345436   75.698334    0.010431
H   59.064880   19.370991   45.383286
H   39.165703   51.831955   69.501595
H   23.710434   43.347473   62.936813
H   61.707901   22.653353   18.997301
H   64.065239   83.389496   88.230019
H    1.612085   51.089859   28.582939
H   63.603992   45.493736   29.338818
H   71.644905   86.033836    2.135813
H   20.927719   49.346806   28.646713
H   91.815910    2.425745   44.353867
H   41.816944   96.144577   90.194168
H   71.019531   98.579544   20.921347
H   43.438560    5.729832    1.678035
H   34.132828   44.900333    7.255188
H   41.484478   64.703903   67.337578
H   57.641788   16.740561   25.848923
H   32.433537   23.336815    1.504884
H   44.741276   91.220665   92.929771
H   22.720543   76.946663   27.263147
H   54.523293   79.094582   89.031982
H   64.370026   67.438797   17.010786
H   81.082848   65.863136   91.674080
H   20.345230   39.626369   96.961189
H    3.245603   57.965508   40.914589
H   63.729034   13.323761   21.117598
H   63.074097   92.416176   67.223434
H   36.713921   59.253441   52.412739
H   20.336782   69.832458   77.748634
H   11.926844   30.468328   83.983894
H   65.054253   90.226822   46.473732
H   64.463799   83.058357   87.459969
H   47.230457   82.706223   36.646675
H   56.295811    6.255937   33.917202
H   95.899895   44.990814    2.348745
H   48.037487   46.822392    9.807564
H   43.464054   67.693535   64.551163
H   56.452293   65.751038    4.736460
H   30.784822   28.131775   41.539139
H   52.236172   89.974770   78.415237
H   56.692673   51.079975    9.366991
H   94.887527   11.422140   56.678070
H   63.195992   59.076576   56.421852
H   47.426453   77.161400   86.354813
H   73.560738   83.386780   30.413322
H   89.333862    8.954802   33.574425
H   26.314241   29.462685   32.061630
H   61.431641   18.116257   47.575142
H   45.861107   35.142708   61.112404
H   15.552473   47.538864   98.467903
H   74.237907   76.503716   93.904274
H   36.473457   89.776253    8.624550
H    2.843309   84.871002   18.046089
H    7.420638   77.930649   16.685507
H    9.532063   73.908905   94.001350
H   51.777367    1.256124   99.509491
H   88.498909   23.550985   49.482365
H   86.895035   16.479134   33.936707
H   38.139084   66.070564   34.671375
H    6.948340   82.554260   40.447380
H   13.086411   30.146261   81.449638
H   50.625164   75.253197   24.874592
H   62.833912   35.019646    9.719616
H   81.593124   81.672005   72.760025
H   12.168489   50.409031   29.463234
H   47.737350   51.443069   29.945740
H   31.547024   40.206463   43.102871
H   20.555298   51.124039   98.474930
H   84.612938   24.882242   30.478550
H   22.812826    2.524880   66.976112
H    0.910415   82.830811   45.385048
H   26.987194   47.844158   15.115278
H   37.682579   26.573128   73.897217
H   72.954681   20.748379   84.764656
H   77.597359   35.375237   19.560356
H   72.972855   65.831223   61.964489
H   67.238411   30.453135   55.762524
H   56.420261   74.927483   53.642632
H   53.038689   59.270355    0.609565
H   49.294746   77.287682   98.019737
H   38.335300   55.140358   40.351555
H   81.142838   54.030510   12.905319
H   78.782181   28.281935   76.457458
H   10.742423   25.228882   39.140289
H   58.406609   41.402294   56.594250
H    4.822617   51.579983   95.977730
