100
TIME:    3.639, STEP:  3639
H   71.231598   88.306549   95.814407
H    0.044106    2.044731    7.546900
H   42.305847   35.707741   80.625511
H   82.087402   82.722893   40.697254
H   62.576859   64.439400   67.036407
H   71.593880   97.265694   39.128387
H   62.248646    7.059507   75.027473
H   33.868073    3.422411   74.073616
H   64.174370   36.418457   71.025932
H   75.396706   68.634010   50.190636
H   61.764114   12.665445   89.222557
H   16.949257    6.094961   33.900520
H   11.786069   41.542923   63.441078
H   74.899086   93.859444   34.169773
H   24.765240   44.976944   75.849922
H   55.208389   93.448723   30.972952
H   31.480507   22.662670    4.660879
H   78.903648   17.736290   73.385925
H    1.947342   31.013918   55.077572
H   94.479210   28.538107   64.092674
H   48.333298   93.942932   58.472000
H   11.254822   48.914810    9.383774
H   37.158134   65.026466   28.234940
H   80.938957   80.325775   36.809788
H   99.433380   97.567627   63.414650
H   29.971514   19.179941   48.086983
H   48.284191   91.207901   72.175392
H   25.493902   26.295914   87.057457
H   90.296997   79.250656   85.155220
H   40.528046    0.774122   72.678741
H   59.274647   48.371319   21.472847
H   95.526009   51.967995   62.383598
H   26.683359    2.236211   25.626814
H   31.858555   40.230049   18.445717
H   90.314850   83.839531   46.317276
H   88.956184   70.348724    8.125642
H   28.826786   71.267563   95.204399
H   13.586413   92.353508   79.235222
H   91.468597    2.131147   91.666420
H   20.440651   71.512939   24.342836
H   86.552246   81.046143   28.078962
H    4.568559   75.179581   73.764679
H   42.585674   85.321945   64.321190
H   46.983932   73.759216   36.536201
H   40.999271   88.315277   67.509827
H   31.139545   32.325153   97.943916
H   70.164352   22.739243   60.396317
H   56.433758   32.850479   93.738655
H   71.399582   31.067543   99.311768
H    2.198169   86.126213   29.147999
H   43.266987   18.321587   91.785858
H   81.981628   26.066902   35.168575
H   84.359917   43.108887   91.521828
H   92.423759   47.834229   92.396210
H   51.050888   77.498718   31.297781
H   98.119431    8.706488   68.746658
H   26.948793   84.544746    2.086545
H   55.088615   33.229324   19.823101
H   77.276543   92.524841   32.114788
H   18.882935    7.492911   60.108772
H   89.251259    9.342624   30.670788
H   69.759392   94.070786   30.701126
H   21.111601   58.964409   83.933311
H   92.922905   61.589760   28.341351
H   76.761665   70.203957   34.453739
H   77.795692   61.367348   61.349884
H   95.604294   74.170624   42.753765
H   28.995293   25.655905   40.167843
H   38.269852   88.311005   32.000843
H    4.112967   31.173304   94.070435
H    6.477020   47.802513   18.495876
H   73.914291   30.753952   23.051884
H   69.721832   38.305988   68.446526
H   50.104687   19.095886   86.937431
H   37.622349   33.826450   77.258705
H   11.683990   40.798592   51.070316
H   97.352242   11.141911   55.406849
H    2.947169   12.774817   15.407394
H   36.015739   42.829838   58.285439
H   21.062050   10.765499    7.418138
H   82.087723   66.928787   97.483795
H   14.362292   67.992996   82.486328
H   48.038517   67.998932   76.496704
H    0.508060   23.556210   31.050453
H   75.140045   21.262501   94.992279
H   67.543091   42.721283   94.486282
H   10.195318   38.767982   97.064774
H   14.532431   13.947025   57.898438
H   31.204308   91.558907   98.428474
H   44.602299   59.559189   54.301338
H   72.945465   69.925819   10.310830
H   47.543884   69.177299    2.865506
H   18.721088   36.705391    0.413905
H   98.950294   33.964638   72.176704
H   93.673210   23.769978   99.708214
H   94.488037   52.030830   79.489754
H   73.755737   76.515419   27.907450
H   20.224089   47.221588   97.808495
H   35.359734   52.536594   40.232826
H   65.241753   85.250648   47.183754
