100
TIME:    4.062, STEP:  4062
H   42.625397   49.515198   95.427139
H   88.293404   24.977175   34.227600
H   49.576805   66.140556   75.662025
H   82.158401   65.295830   17.510588
H   58.788086   98.344719   55.566818
H   65.036140   96.807426   81.019798
H   40.080776   35.623516    8.106698
H    0.621105   40.016247   35.234692
H   53.776222   95.748550   44.398876
H   63.836754   74.707664   66.755493
H   22.417679   29.685719   48.476734
H    0.803439   27.297510    3.791885
H   84.862564   15.952942   21.401443
H   53.954338   92.555641   66.361191
H   29.911064    7.193370   55.517002
H   38.200867   56.451714   95.859314
H   97.465157   50.639561   43.168236
H   87.939903   97.165428   58.720211
H    8.535370   48.760475   77.363556
H   83.080620   19.555101   92.892509
H   23.231873   51.833050   46.992729
H   51.808243   49.476349   73.361465
H   31.510475   61.586235   16.131199
H   41.637703   85.398987    5.392905
H   84.304108   64.023758   66.538612
H   28.030333    6.576537    8.439610
H   11.807661   73.625931   80.566200
H   89.802216   46.040131    1.038012
H   99.494614   17.628498   65.159279
H   56.748123   90.304924    6.306273
H   75.921638   86.302895   88.006432
H   22.234205   40.282181   23.224342
H   56.480122   71.287132   63.733994
H   49.730988    1.464763    0.626408
H   79.800522   51.864098   72.074844
H   25.739084    3.576516    6.665688
H   69.396896   55.776840   28.534903
H   96.103157   84.614601    9.086296
H   73.615540   92.914543   50.674095
H   80.598076   31.912167   57.624928
H   57.642685   95.562241   38.044659
H   66.551712   94.162170   93.637985
H   46.229221   87.858551   94.876640
H   19.972704   80.846222   77.895142
H    4.307631   71.624023    3.706645
H   25.682293   40.393238   99.660805
H   73.469040   45.743614   64.459038
H   56.456348   37.207245   19.911430
H   83.766342   96.035492   82.439789
H   11.069835   92.561317   99.563820
H   43.234715   77.483467   96.245895
H    2.538912   86.816132    7.398237
H   93.131538   45.561584   66.956123
H   82.625877   40.931175   11.061587
H   17.371475   14.571932   34.895832
H   98.648697    8.261129   54.346741
H   53.763882   72.339348   42.317513
H   23.590813   93.281578    8.926870
H   10.638670   10.397902   99.640755
H   90.969086   40.007290   48.077644
H   15.934517   89.670555   97.691078
H   54.746300   90.133560   11.560590
H   49.830143   30.099922   54.926933
H   21.969316   63.890778   16.855625
H   93.549736   36.418636   73.845360
H   51.810005   40.338692   86.360947
H   61.666702   88.796448   63.175701
H   99.775475   49.847672   60.389690
H   59.353371   57.916916    5.470074
H   12.682886   52.450394   93.179718
H   93.044884   19.021313   13.421051
H   39.036659   16.715485   54.023182
H   42.141891   17.383831   57.601112
H   40.790890   92.327934   61.803734
H   58.015240   34.429943    9.324874
H   21.684839   67.910118   22.608807
H   35.758049   74.480026   62.887577
H   22.820477   85.116585   38.769318
H   56.298904   41.587353   63.006882
H    0.316930   87.728722   70.976311
H   90.362350   71.304916   22.764975
H   46.102097   70.755508   47.115845
H   74.800667   75.060120   16.785412
H   29.609640   59.753242   92.416336
H   54.543839   94.803505   53.987045
H   57.807697   58.260414   23.860977
H   38.446526    8.012444   17.235502
H   21.340281   80.080788   53.499718
H   39.982529   68.006554   94.968880
H    7.202765   42.154716   69.422089
H   90.256348   92.768181   19.243814
H   78.843292    0.984997   10.926102
H   45.835518   49.398102   33.125225
H   39.835781   59.624374    0.698950
H   86.360298   85.880302    9.427855
H   29.426163   35.326668   57.641380
H   40.179596    0.790648    3.579359
H   21.776388   50.823181   91.037758
H   15.208885   54.359982    4.801025
H   91.517891   74.394234    6.434295
