100
TIME:    2.717, STEP:  2717
H   33.582184   72.858604   96.658524
H   25.692009   52.057129   49.387501
H   26.457563   69.375946   91.444267
H   81.932648   20.710035   91.234924
H   70.835129   90.537048   92.036316
H   85.887581   98.264565   47.819820
H   10.573029   44.803078    2.925818
H    6.335457   23.657228   58.728954
H   86.838890   25.065033   29.061165
H    0.593489   55.395454   14.083568
H   47.526306   75.566986   78.033829
H   52.141869   59.879822   99.530556
H   70.432899   97.324936   55.080666
H   20.551094   96.701302   64.006248
H   13.549046   27.333635   20.168131
H   92.279160   74.090302    7.506462
H    5.622130   61.677711   20.727579
H   59.205894   62.572929    5.350384
H   87.583870   92.333862    6.505690
H   19.318886   48.115192    1.318658
H    3.046062   85.731354   83.498489
H   22.861786   47.690842   87.900650
H   49.468163   72.525032   54.614075
H   66.602768   69.267853    5.284931
H   32.407585   70.689606   56.608101
H   34.200817   46.650532   34.507339
H   27.788509   29.534075   53.882320
H    3.289867   83.260094   56.583149
H   70.249237   95.599770   28.737562
H    5.175776   23.594559   99.382774
H   22.985559   65.693222   94.418556
H   37.310127   77.442909   47.737755
H   61.740566   69.693687   42.565773
H   92.900429   24.725815   57.287903
H   13.233867   53.535797   90.175270
H    8.786729   97.918816   11.300092
H   40.394646    5.032690   22.554136
H   51.691338    9.225224   14.173271
H   30.387260   22.217596   81.014923
H    7.282763   57.827553   51.802746
H   49.563175   49.409100    6.357224
H   87.432671   33.798683   30.447577
H   34.643948   79.792984   97.725761
H    5.860775   58.309296   46.387566
H   20.976332   24.692646   88.611671
H   43.034550   14.739399   94.201668
H   62.960217   72.597260   51.540131
H   56.384518   23.357374   36.690468
H   44.449242    7.428266   36.091660
H   82.867119   72.099815   93.634674
H   43.337330    7.334452   82.064453
H   37.173130   11.621517   95.695061
H   65.240685   37.762817   45.070778
H   13.775364   62.880600   51.709808
H   24.459724   96.691513   23.460218
H   96.965805    9.676514    0.133715
H   68.496513   11.149146   14.396872
H   23.743011   20.300491   43.572708
H    4.561683   53.568874    2.897245
H   79.724426   36.625896   86.332649
H   31.091597   52.217701    2.557895
H    2.482697    2.653164   72.420151
H   58.526203   21.874334   47.161545
H   29.610498   56.574303   53.376431
H   40.164646   43.841976   48.590485
H   34.435493    7.202752    6.835375
H   69.578468   42.295956   98.238297
H   92.683861   72.925171   96.090912
H   92.316429   54.560036   89.826698
H   85.430725   84.800362   96.011902
H   35.756279   10.534739   29.557316
H   49.937584   61.353165   55.548622
H   29.838633   83.912437   92.081779
H   70.399193   77.443024   41.729164
H   93.169456   32.511036    7.364647
H   89.888649   81.707390   13.110365
H   13.640593   91.055313   39.101337
H   59.629925   73.063637   64.491425
H   91.803329   45.538044   47.994255
H   66.278542   60.981892   86.849289
H   64.051773   57.390270   42.377079
H   45.183937   61.971634   59.583717
H   89.704758   52.607880   88.680786
H   37.075741   44.658783   15.261841
H   20.034019   78.934921   84.369820
H   88.758545    8.853523   30.460064
H   48.617012    5.804901   53.100388
H   99.693497   87.764938   67.488747
H   12.067850   42.893562    5.971283
H   26.118919   97.488968   21.344498
H   35.213470   20.142391   90.839798
H   79.321564   99.841118   85.294197
H   59.611897    9.044758   29.110157
H    9.835606   78.039589   10.012414
H    9.614647    6.356585   78.520897
H   18.334686   88.440376   27.112564
H   46.939438   23.603405   80.932289
H   16.840590   39.371307   12.561991
H   79.281914   48.562214   17.460342
H    7.976181    8.914833   36.000031
