200
TIME:    0.580, STEP:   580
H   19.918669   61.346607   21.153366
H   30.994719   37.841774    3.699946
H   11.011569   84.019897   62.095024
H   29.303421   80.947762   35.608780
H   11.600276   92.346497   48.770119
H   78.557800   43.586861   55.485832
H    8.285216   55.062889   56.232327
H   10.507836    3.568096   13.003854
H    1.236234   82.409027   39.425121
H   98.892593   70.136314   82.661507
H   24.044443    1.857274    3.705986
H   32.183746   51.097931   28.942484
H   19.519054   98.291756   47.356743
H   88.333534   54.641415   58.649471
H    3.206636   74.561928   42.142029
H   19.390034   11.957500   46.988487
H    0.201966   23.642380   98.924477
H   28.488655   99.511795   37.467281
H   76.337830   17.392765   47.488945
H   91.137947   75.035484   24.290638
H   62.165428   93.730759   10.263659
H   82.459755   61.810280   57.472427
H   84.823784   60.069382   40.978096
H   15.809808   91.159004   90.519951
H   18.024673   26.378286   33.278240
H   18.379644   77.425400   95.727150
H    5.480026   65.618965   62.752213
H    2.313223   84.155159    1.625910
H   25.388737   46.195259   36.347473
H   77.685196   29.872507   86.864731
H   12.917595   65.653969   16.610500
H   25.743267   71.475082    1.974042
H   18.908119   16.301561   77.332138
H   85.173805   63.948860   44.233139
H   31.672201   75.751938   31.632784
H   21.955070   42.169800   83.375252
H   96.023071   67.090591   88.507423
H   16.097359   53.550251   99.880371
H   40.486786   34.225704   51.989235
H   86.822098   38.290325   50.415131
H   80.605476   89.340958   12.809684
H   30.262529   35.977295   29.749435
H   70.580032   79.971413   62.953251
H   36.523819   79.747261   30.908331
H   40.394028   86.668533   56.633507
H   36.275169    4.990059   46.385616
H   86.381317    9.554722    3.633586
H   81.838387   65.545418   35.424759
H    0.229327   15.849640   61.411465
H   49.950268   19.335852   91.328400
H   70.120163   66.192680   14.394269
H    8.141106   41.550030   70.851601
H   61.346527   84.696953   12.372797
H   17.346359   89.358688   86.738106
H   62.807419   68.823441   79.777412
H    0.947096   63.974045   89.781647
H    4.460168   18.032082   46.007435
H   71.123276   66.483292   99.166740
H   21.006823   81.045456   15.349771
H   35.239597   94.079994   60.708984
H   49.318367    8.742914   32.302803
H   96.046989   17.230318   51.672493
H   80.814224   32.249786   73.414276
H   32.363945   65.637413   11.258736
H   76.813919   81.147736   31.832762
H   25.402357   29.770391   38.974747
H   73.474953   15.990241   92.859657
H   95.437431   92.222939   94.002968
H   28.616335   10.447860   57.676369
H   43.279797   47.555965   50.964436
H   58.316010   82.472717   82.375885
H   22.584873   14.884915   42.384838
H   88.284805   31.541088   88.110718
H   18.942129    1.491256   70.470863
H   83.285049    6.375388   51.625931
H   61.907661    7.073123   60.655716
H   93.990509   42.607590   67.336311
H   13.962101   12.161154   36.341255
H   14.115475   44.841152   27.408092
H   63.152737   88.770737   78.137360
H   57.798489   24.355703   96.085968
H   41.586712   62.475880   77.346367
H    9.673209   17.395815   80.331749
H   13.586687   72.977455    4.932881
H   26.800751    2.919199   48.146805
H   34.246033   73.878265   20.705109
H   51.093636    3.492594    2.550807
H   72.504036    5.889933   24.266247
H   76.092484   72.884781   78.395264
H   21.741173    1.286952   51.124966
H   26.990349   37.827900   79.242188
H   81.687111   91.518555    5.786551
H   63.411198   13.027527   86.046448
H   44.781666   82.218529   78.440453
H   33.740074   52.327049   82.100395
H   55.191872   35.310997   13.075589
H   83.917717    2.519235   12.972105
H   97.548058   33.721817   51.812717
H   29.313744   66.372116   54.086159
H   73.116142    3.452075   27.333414
H   25.035795   89.827026   84.949928
H    3.215191   81.800461   63.989143
H   30.227278   24.744341   35.253948
H   38.213280   68.567230    3.664300
H   24.888033   23.004578   36.110714
H    0.883389   10.126574   27.972559
H   81.764412   34.318508   54.676895
H   62.747822   47.328651    5.594368
H   81.437157   35.797890   15.573322
H   15.288745   23.319864    7.201312
H   51.667885   93.112221    1.035066
H   99.646149   71.895203   94.383995
H   51.188812   84.220123   86.539894
H   62.072441   12.067368   66.186279
H   52.504128   96.126587   14.851279
H    0.162917   95.851204   94.272675
H   18.595905   13.230250   88.143723
H   39.046108   43.731632   27.182243
H   31.774595   70.478653   66.735764
H   79.755257   53.460751   62.026093
H   44.103157   24.018803   76.378624
H    3.618812   19.425678   58.189308
H   40.433418    7.482775   34.115383
H   99.067993   55.083900    2.976097
H   66.742729    0.533826   81.568169
H   60.178707   71.654724   18.966635
H   86.935402   50.777451   57.923965
H   67.991692   90.236595   37.874126
H   96.651833   40.176464   77.142006
H   84.224838   22.537827   72.293999
H   62.333778   73.045807   16.404659
H   68.649620   89.423569   17.345020
H   91.327522   99.136635   99.904297
H   84.248962   21.720257   53.891796
H   21.222385   95.222382   40.793259
H   53.302444    1.190492   78.672600
H   69.455612   87.430916   72.264473
H   94.118431   53.605030   77.826210
H   55.200256   49.088425   71.469673
H   43.632118   92.783531   86.010162
H   67.450089   53.070114   25.892883
H   41.586136   51.341408   54.172840
H   44.075706   63.019001   87.916199
H   42.133553   14.220295   83.758583
H   56.283535   58.490982   60.186405
H   58.397789   67.833420   13.562370
H   52.772636   95.288841   44.847431
H   33.368538   60.762596   66.874290
H   74.274628   50.596718   94.564484
H   20.300140   92.386803   77.273392
H   64.235970   67.084183   48.777439
H   48.099731   97.701866   37.497498
H   91.970581   19.125423   91.529282
H   18.897652    8.946959   67.550575
H   27.094822   62.858150   66.904259
H   73.595329   44.371952   64.521301
H   62.870220   71.080185   84.781662
H   50.879974   31.204727   17.689640
H   96.820610    0.453231   89.995705
H   59.867802   43.071136   91.288864
H   57.295715   70.596367   74.375816
H   27.640490   21.294331   32.598495
H   79.854668   19.746029   37.090679
H   23.754911   30.167835   56.652328
H   55.698723   33.625153   13.165285
H   17.771584   53.621044   60.443226
H   69.045189   92.067696   55.826054
H   23.929226   46.401848   62.072163
H   98.692863   27.064520   36.054092
H   41.988930    7.893929   86.574615
H   72.869629    9.677207   35.947540
H   34.417336   52.818398   58.502197
H   44.242233   62.844761   80.857376
H   67.039230   66.405479   82.127609
H   55.635254   92.478867   83.244637
H   11.404645   49.497398   23.612940
H   31.924931   63.542259    1.130738
H    4.743351    9.525108   69.227737
H   66.906502   13.475560   65.158249
H   70.126976   58.102257   91.181297
H   75.210388   97.373405   33.814102
H   26.085539   30.521084   82.028427
H   49.980556   89.809387   12.802719
H   58.885193   25.849529   89.698524
H   89.919785   73.587524   76.996078
H    6.378201   39.092728   85.655861
H   43.190979   98.700722    6.798735
H   74.086670   81.626411   37.423546
H   96.772011   62.689594   70.429214
H   55.796356   56.423794   69.998672
H   64.062561   19.775490   76.873482
H   44.865669   94.169006   20.293715
H   11.652644   25.612747   65.594948
H   29.163630   77.100311   40.165318
H   73.226822   39.068798   20.704109
H   76.158218   11.217739   24.908207
H   11.721297   94.830345   14.942609
H   19.028318   90.648827   37.378014
H    7.379333   12.563242   62.811073
H    4.461584   23.473629   93.025131
