100
TIME:    8.676, STEP:  8676
H   30.599194   26.390577   91.202896
H   60.866287   75.004623   25.154152
H   28.903383   98.090652   21.497101
H   82.932846   75.198967   64.603218
H   17.454714   68.176910   30.462467
H   93.476074   91.808739   37.959236
H   98.261650   47.183731   68.927666
H   37.969803   39.185886   11.591676
H   40.355232   52.130676   53.964802
H   37.787697   40.959507   47.421211
H   93.234650   15.340018    4.033618
H   24.702118   58.573620   75.362038
H   90.509842   36.840141   62.909340
H   25.497442   78.334023   17.487103
H   85.984688   95.049751   33.671837
H   52.680389   52.894310   12.856888
H   26.434822   55.819630   63.198860
H   86.592819   72.664848   98.774490
H   80.396484   42.322964   20.447590
H   58.766666   21.569563    7.034981
H   49.430580   92.493683   21.763083
H   94.156914   55.601501   80.436752
H   69.905098   24.064600   84.119308
H   12.932043   40.618378   62.720036
H   19.280968   98.109238    0.613877
H    6.698769   70.335007   74.432465
H   13.937391   81.826492   72.114914
H    0.486596   61.406055   53.556450
H   99.821709   36.246273   47.052391
H   33.668633   76.108322   73.105804
H   57.512516    0.049965   22.961571
H   13.565126   12.804661   96.083321
H   81.482925   33.704414   79.399551
H   44.684158   78.619110    6.245914
H   65.034035    2.775075   52.908398
H   26.827089   64.973877   92.150520
H   11.940633   86.800545   92.100304
H    5.398020    0.175085   34.682251
H   78.855949   92.383141    3.543867
H   46.010963   99.964729   20.643824
H   42.307968   53.875114   46.747280
H   69.047852   75.626099   22.886436
H   85.952850   15.532524   28.149776
H   25.352467   58.273315   29.027821
H    4.077474   89.587151   98.539482
H   66.132347   28.392944   18.408514
H    9.522145   96.667915    8.748367
H   56.717159   84.729980    5.399164
H   18.639435   13.904404   98.383789
H    7.893106   62.787708   76.907341
H   42.905857   32.032112   44.886414
H   26.782866   58.671314    4.510557
H   88.832985   72.315125   98.983536
H   75.773621   65.651962   14.664287
H   49.999092   18.927771   74.136993
H    4.401707    3.407413   97.275269
H   46.271927   39.204292   81.147194
H   80.023132   57.546181   90.080467
H   74.534599    5.360026   45.429550
H   86.492378   94.653702   16.844505
H    6.988971   75.096069   37.946560
H   90.989708   47.187088    2.792318
H   63.075642   15.248139   38.531097
H   38.805187   89.024872   91.584946
H   76.689499   67.907257    3.526636
H   68.368538   10.963687   59.177189
H   91.476395   48.312969   85.938950
H   81.055008   13.726941   80.965576
H   89.312317   26.384300   16.088409
H    6.229973   84.417252   83.441956
H   46.526768    5.084497   58.079720
H   58.818871   63.522850   91.993454
H   41.300125   89.160637   39.297756
H   39.215496    0.316424   87.655556
H   80.403076   41.090168   59.121784
H   30.763254   63.624580   12.145070
H   54.748856   74.871094   44.613205
H   39.590260   83.423027   93.590027
H   77.558296   28.034573   14.480387
H   74.046288   36.397087   73.476097
H   80.662422   19.039560   98.535614
H   92.336472    0.736366   61.168846
H   66.651787   52.211582   56.202251
H   47.043739   54.583473   70.998039
H   29.881790    6.185549    6.712749
H   51.615444   27.737015   44.271057
H   46.605274   72.536278   37.248421
H   95.562981   10.811720    5.621225
H   35.737553   11.106787   57.232307
H   99.263351   52.323532   34.363319
H   79.080345   41.908962   16.683372
H   20.235041   47.997284   98.842247
H   41.601749   87.839104   89.932983
H   85.767136   39.535755   11.807859
H    6.586977   72.587021   15.451868
H   10.523665   53.125916   19.322487
H   73.942345   65.576591   38.224236
H   21.530626   15.749173    4.709269
H   95.408562   74.267265   18.331142
H   78.110519   55.991566   61.954441
