100
TIME:    8.452, STEP:  8452
H   45.747551   46.932335   91.407974
H   67.052811   62.867260   11.030250
H   25.053041   81.974930   24.126373
H   82.895248   84.427483   76.880562
H   19.461916   50.222324   36.535980
H   96.948730   92.051414   15.775535
H   10.001428   32.057510   51.410572
H   55.575760   19.807711   32.159210
H   45.861580   73.667297   68.065140
H   43.905861   37.743198   38.650703
H   14.070572    6.327222   25.610426
H   33.252167   47.345592   91.306862
H    4.793635   50.397514   85.170486
H   36.588249   79.024452    0.440001
H   83.263985   15.058517   44.443565
H   61.686737   72.486107   31.451420
H   44.447517   41.004444   42.807259
H   81.804245   83.564751    6.539173
H   76.906738   32.925259    8.647052
H   64.801315   26.326521   91.784096
H   62.723061   14.793591   27.842794
H   72.681816   55.304138   99.512436
H   72.895821   25.885523   90.528000
H   33.744980   37.938690   79.355423
H   27.291832   15.873955   98.959877
H    7.755348   76.938522   95.511078
H   33.253242   91.137039   67.671555
H   19.386759   50.950489   46.151421
H   94.951103   15.923706   57.641258
H   25.079964   81.652267   55.298187
H   48.695866   79.962563   40.683739
H   99.421867   18.993114   16.820061
H   65.705582   50.093575   59.219864
H   35.219803   99.147430   15.682112
H   70.608742   19.734978   39.279247
H    7.355775   47.427826   92.854622
H   90.455833   95.003670   74.449913
H   14.656015    4.274611   18.875854
H   88.310051   97.264000   25.250534
H   67.108627   20.935144    3.019921
H   57.617050   46.189812   41.469936
H   87.925293   74.747681   11.450768
H   84.025116   14.188835   11.970713
H   39.654957   54.511841    7.127185
H   23.507729   98.422600   79.371513
H   69.023949   24.121338   17.498480
H    7.770835   84.486275    6.597322
H   56.703487   82.422852   91.539436
H   12.092316   32.455429    7.319366
H    3.191263   59.378284   92.568474
H   42.921238   53.657600   42.524597
H   15.895784   79.456421   19.215229
H   84.187965   71.016296   11.993109
H   80.962097   69.305771    4.780375
H   67.834053   99.297211   72.233185
H    4.122715    3.643040    4.900772
H   32.071976   45.667671   59.842995
H   96.702820   78.699989   95.849998
H   56.867123   95.895073   62.627060
H    1.274980   77.437393   23.215599
H   92.858871   85.514038   55.410671
H   98.939903   49.272049   12.927864
H   47.867390   30.534128   53.891449
H   23.423096   87.804657   97.665512
H   67.799362   85.796906   82.666672
H   82.129280   22.099236   45.932560
H    9.448450   40.569561   75.124496
H   96.528152    0.915633   70.257080
H   78.149231   42.479515   30.137970
H    1.680497   73.165298   83.917053
H   53.641270   20.326340   60.766243
H   77.265167   70.960350   75.573532
H   55.905106    0.241668   45.041653
H   44.145916   14.493195    0.965076
H   69.612549   40.760334   42.137897
H   25.467112   49.267403   27.217348
H   34.405106   94.257812   40.639816
H   29.067804   98.069023   81.216980
H   66.815620   28.692532   11.980570
H   85.031639   48.599236   92.773949
H   76.277168   16.722178   85.147430
H   75.526901   99.282974   79.909309
H   52.482918   48.465488   34.868999
H   31.633808   35.415504   91.458000
H   40.788528   20.197811   28.426434
H   56.771450   19.509109   28.715881
H   31.644823   88.822899   26.567268
H   91.960442   28.736355    7.943919
H   31.088947   23.578268   59.064339
H   19.068213   61.540085   26.356127
H   69.913353   29.814480   11.952903
H    3.661310   31.150158   94.573204
H   27.242863   81.119377   72.610718
H   64.117722   25.945911   96.704216
H   10.460312   92.650497   10.304834
H   92.022110   61.971619   30.892311
H   91.722618   52.721611   51.106560
H   21.962999    4.665619    9.206461
H    6.079331   73.299980   37.094082
H   64.195969   61.738880   83.532242
