100
TIME:    5.673, STEP:  5673
H   33.680092    1.779202   93.952225
H   43.800148   12.274459   35.806133
H   77.274216   82.042587   56.753826
H   82.428802   98.921722   29.206051
H   44.358505   27.473391   11.887306
H   40.049137   95.062111   40.562580
H   55.647083   44.406345   34.089069
H   73.999680   79.388199   87.317757
H   14.174767   40.857635   42.992027
H   19.812258   97.839241   29.838324
H   72.566391   94.508209   93.297554
H   39.318985    8.048784   89.119087
H   82.061050   18.532986   61.323906
H   74.187920   87.590096   88.957558
H   49.503502   63.292221   78.077209
H   73.424637   15.547856   62.132538
H   67.918190   57.194439   89.823914
H   22.381147   18.789692    2.870832
H   33.626957   16.341707   62.235989
H   39.675858   85.340614    2.576853
H   27.632851   91.451904    3.269764
H    6.256378   51.614975   36.169907
H   10.000447   48.484077   70.039032
H   91.954414    4.693820   85.747040
H   26.684681   36.262741   78.436256
H   20.685587   58.952660   56.953590
H   72.890488    6.656214   12.526676
H   53.869884   21.236153   54.293854
H   34.525154   63.790897   89.006958
H   18.521366   50.433067   34.375351
H   39.323639   30.764713   60.549232
H   23.953770   95.774643   74.086037
H   69.956657   53.418449    8.865598
H   17.799187   53.826103   32.755806
H   39.756592   30.084818   70.173233
H   65.781784   29.762760    1.590689
H   23.913857   96.776978   55.475506
H   29.517132   55.137196   22.769741
H    5.611839   57.811577   94.556786
H   28.860579   81.096291   84.374535
H   47.541992   50.835838   75.999123
H   22.124599   63.850098   69.574669
H   60.105709   97.519241   11.241225
H   17.104115    7.864088   35.411980
H   64.563896    8.065640   41.564678
H    4.896182   71.120621    6.208369
H   86.054977   33.355667   79.921059
H   56.542385   53.800034   19.590979
H   30.857475   62.610847   18.175236
H   44.857670   17.078039   86.887253
H   43.112057   21.952085   13.229606
H   80.829979   37.327320    1.638916
H   26.546917   54.902710   73.391045
H   45.316696   14.640983   82.150658
H   89.101921   55.760265   48.600246
H    0.661442    6.566278   99.504486
H   55.894234   25.854958   95.536858
H    3.632621   41.143089   67.431870
H   37.693939   78.467079   75.964516
H   84.659271   63.835003    2.256966
H   17.557678   14.751616   72.083397
H   97.572060   75.138596   38.669357
H   59.201527   20.167719   44.455811
H   32.593971   72.666367   73.119675
H   57.495438    7.750664   23.871038
H   52.844566   60.251427   81.615364
H   32.413574   44.492100   40.955276
H   88.492729   41.982700   37.404804
H   39.644169   42.160728    4.431001
H   45.319008   33.477234   89.787415
H   41.889931    9.409773   94.095924
H    6.202816   63.249130   71.973251
H   37.101608   37.696022   16.291214
H    5.326496   90.374901   66.083122
H   35.689533   36.728352   31.450428
H   59.774506   71.159966   14.208931
H   82.026878   34.847965   91.378014
H   98.508179   79.777412   27.738115
H   33.553799   36.855335   80.976936
H   21.315346   99.983955   32.187134
H   21.883699   87.971451   19.050985
H   66.985107   81.261063   12.394254
H   76.705330    1.991827   70.212189
H   40.443077   97.609665   45.275677
H   76.100960   94.034904   97.818771
H   20.725887   17.432072   35.733658
H   46.041573   90.879463   94.053970
H   47.266441   51.114979   36.757561
H   73.413925   78.308846   81.792976
H   64.770264   75.874069   27.013971
H   56.185204   79.756668   53.265179
H   98.043449   22.143049   41.619354
H   49.103653   97.736549   57.706379
H   95.541603   57.347485    9.320764
H   58.508995   41.577213   46.445011
H   62.488129   71.711151   74.431030
H   12.306515   93.242699   10.929854
H   27.327127   67.156830   64.993858
H   38.464325   61.304371   69.864677
H   91.583359   33.056667   51.243191
