100
TIME:    5.590, STEP:  5590
H   39.293129    9.390521   94.028214
H   46.092476    7.776711   30.572495
H   75.846893   76.071136   57.728382
H   82.414871    2.341423   33.755684
H   45.101929   20.820574   14.137682
H   41.336514   95.152031   32.342495
H   59.996807   38.801540   27.598360
H   80.523315   72.207260   94.938164
H   16.215065   48.837723   48.216888
H   22.080206   96.647484   26.587904
H   80.286850   91.168503    1.292782
H   42.487083    3.888557   95.027214
H   87.357468   23.552361   69.571220
H   78.297646   87.845924   82.641624
H   48.494118   70.706192   82.066620
H   76.761810   22.807327   69.022186
H   74.592537   51.704884   82.268097
H   20.606176   22.828178    5.747957
H   32.334515   12.859523   57.863468
H   41.911827   87.103554   96.925850
H   32.558189   99.714417    5.522514
H   98.299088   51.504791   43.238129
H   11.108775   49.159111   72.413681
H   99.666008    3.700899   91.910995
H   29.652992   42.845268   77.823280
H   21.063948   61.406464   64.758331
H   80.047363   10.106548   10.879778
H   60.872883   17.361992   51.550026
H   32.720421   56.260410   92.930511
H   15.338987   52.487297   27.777195
H   36.056755   23.321930   67.115929
H   18.713078   98.068237   81.769768
H   64.110588   59.491219    1.388300
H   14.292066   61.432579   36.252556
H   41.819687   36.359055   65.118713
H   58.566654   23.261604    1.851722
H   15.953084   99.816528   48.935406
H   32.947392   56.656338   16.912907
H    9.115451   59.620110    2.600110
H   36.678051   88.866142   77.844566
H   53.214554   47.988159   74.043678
H   29.223019   62.741730   65.417717
H   59.390781   97.021515    5.246150
H   22.403698    6.470881   27.296827
H   71.763832   11.340281   34.462261
H    5.967228   69.537521    5.871169
H   85.406540   28.841713   79.124443
H   56.537952   52.945160   14.455405
H   28.431534   69.485168   21.486130
H   43.116894   15.814726   92.692795
H   43.118137   29.965418   12.354627
H   76.796242   45.029415    7.087881
H   24.825138   54.421448   78.211266
H   47.238579   15.995324   78.487999
H   95.710411   48.486240   47.894184
H    0.558055    6.653585    2.330017
H   50.632645   28.249870   87.642891
H    9.812882   48.981331   69.569687
H   31.148138   74.960197   82.336174
H   90.136795   57.455112    4.617683
H   12.321846   18.611477   78.555107
H    0.517840   75.911148   42.425102
H   53.566326   25.831732   50.147369
H   26.894463   72.214233   75.372742
H   54.200691   14.379738   16.141397
H   57.943413   64.377617   76.707756
H   39.072723   41.622890   36.948135
H   94.226082   37.235935   33.436924
H   35.507214   48.124580    9.636706
H   43.637756   29.302490   89.962189
H   44.525475   15.057163   95.091377
H   13.046417   66.003723   65.896683
H   42.513275   41.801315   18.419533
H    7.153393   95.628258   71.014793
H   31.688066   36.609936   25.158241
H   57.812096   65.840752   19.793737
H   74.491325   42.042202   89.910164
H   94.608688   85.204277   23.154093
H   29.573887   37.099133   80.051140
H   25.384861    4.505134   39.337677
H   20.259439   87.112778   14.090442
H   60.755623   80.722809   19.337328
H   71.455772    0.603887   62.307957
H   34.733154   90.507248   52.856190
H   80.142296   99.226204    5.864618
H   22.636372   14.383338   29.969910
H   40.498192   96.914238   90.096222
H   45.931572   57.757030   37.618134
H   71.691513   82.930229   82.471809
H   72.108246   79.288498   24.046926
H   52.788506   75.274597   51.512371
H   91.902290   15.900886   40.038155
H   43.783173   95.246651   51.287861
H   87.519722   52.311962    3.724288
H   59.943916   49.012081   44.537693
H   55.632675   74.988800   78.718063
H   18.894514   88.479469   15.703374
H   27.383749   63.833191   66.579872
H   42.418274   60.946590   76.816383
H   86.427521   35.186253   59.239109
