100
TIME:    3.591, STEP:  3591
H   74.477692   92.708405   95.858353
H    1.379369   99.442261    4.519159
H   41.480774   32.254372   81.188744
H   82.079346   84.700432   43.328480
H   63.006790   60.591991   68.337921
H   72.338020   97.317696   34.374603
H   64.764259    3.818220   71.273811
H   37.640778   99.269821   78.480598
H   65.354301   41.033447   74.047173
H   76.708473   67.944801   48.310875
H   66.228958   10.734140   93.846336
H   18.781410    3.689046   37.317268
H   14.839261   44.446976   68.212029
H   77.275795   94.007393   30.516819
H   24.181316   49.264542   78.157051
H   57.138321   97.646965   34.957375
H   35.340370   19.487988    0.291245
H   77.878258   20.070518   75.049988
H    1.199757   29.000124   52.548885
H   95.772667   29.557455   60.824608
H   51.181686   98.721252   59.774612
H    6.653015   48.851089   13.471420
H   37.799004   65.416847   29.608414
H   85.398674   79.750092   40.374851
H    1.150107    1.374161   63.060158
H   30.191790   20.610178   52.585884
H   52.423473   93.203018   71.223244
H   29.544012   24.055435   85.471031
H   89.253296   74.895676   87.424263
H   38.687469    1.962190   68.862823
H   57.385365   44.067242   25.270454
H   92.495247   53.294044   66.827202
H   23.302317    5.748036   21.302595
H   29.830296   44.628975   20.467751
H   91.507965   87.467949   43.394547
H   84.782112   66.578217    8.291352
H   24.222965   73.025375   91.422173
H   15.570270   93.231682   75.847771
H   93.494476    3.176863   96.318031
H   24.961708   76.006348   20.566286
H   89.832764   79.398926   26.948103
H    8.882561   73.025528   71.509552
H   42.172222   85.034103   60.854237
H   50.049118   72.955017   31.843203
H   45.162724   90.209320   63.402401
H   31.758808   31.409626   97.749092
H   69.789352   20.128708   59.935257
H   56.431194   32.356094   90.768684
H   69.996262   35.042763    1.226482
H    1.191455   85.395988   32.505054
H   43.270649   22.955803   91.279755
H   79.648865   30.520943   38.319820
H   83.364555   42.830566   94.309425
H   93.535576   48.617554   90.278046
H   54.872665   73.291687   30.889639
H   98.059372    8.757025   70.380692
H   23.905947   85.929756   97.521324
H   58.662834   37.762283   21.059612
H   73.490654   90.496765   35.799969
H   22.050293    3.803336   61.474007
H   86.223427   11.574771   34.413097
H   71.463005   94.517563   32.873123
H   17.852873   62.239799   87.224815
H   89.627007   61.328651   29.644695
H   74.856636   74.037453   29.983686
H   80.744423   63.753578   58.511749
H   99.455368   72.510956   40.436382
H   32.310966   22.910604   37.873165
H   35.877396   91.759979   35.011463
H    3.140514   28.759058   94.171509
H    8.001282   51.068382   19.071743
H   77.872299   32.346970   19.537540
H   72.851471   40.680134   69.676994
H   51.161572   22.133423   89.789482
H   35.308262   33.757969   73.620033
H   10.549193   37.722054   54.299931
H   92.994331   15.302250   54.557972
H    0.692035   15.913427   12.756485
H   33.714104   42.970829   57.749672
H   23.416054   13.379696   11.553307
H   81.148758   66.432205   94.614899
H   10.760699   67.679520   86.500000
H   45.001530   67.197662   71.924927
H   97.205597   19.448605   35.434364
H   77.477203   24.265064   99.645355
H   68.647583   40.957977   91.153030
H    6.989508   42.257973   94.775955
H   13.759909   17.789993   58.397583
H   30.208031   94.231514   98.821053
H   48.846317   61.534164   52.585640
H   70.981110   67.333778    9.297158
H   43.992004   65.567924    1.950826
H   15.644357   35.265083   96.701988
H   94.311134   31.052956   68.940132
H   94.503044   28.069660   98.605186
H   90.523438   53.926338   81.969002
H   77.565796   73.760780   30.668131
H   20.047941   46.812897   98.576805
H   37.646355   52.329685   44.253456
H   62.260281   86.482582   51.807899
