100
TIME:    1.677, STEP:  1677
H    3.914059   68.231888   97.610672
H   54.621452   95.668861   83.784935
H    8.580976   94.554619    3.649381
H   81.758087   63.557762   48.241817
H   80.150314    7.176457   20.234055
H    2.011217   99.391273   44.824871
H   65.077110   74.577415   21.596443
H   88.077400   33.683674   54.218185
H   12.404137   25.056793   94.525429
H   29.011152   40.462593   73.360771
H   44.264572   33.720066   78.211899
H   91.832962    7.750011   73.558464
H   36.588509   60.246559   58.448051
H   72.046455   99.906868   84.860451
H    0.897805   20.230778   70.161942
H   34.096390   65.054558   93.835709
H   89.239182   92.899673   26.042009
H   36.981163   13.148279   41.408005
H   71.381477   48.706810   51.712185
H   47.335854   70.199326   30.510569
H   64.761078   89.266479   11.728024
H   23.149662   46.313385   76.462013
H   63.353661   80.983284   84.368713
H   63.230049   56.794712   82.525833
H   69.604851   53.172287   48.935371
H   38.969494   77.638519   31.987501
H   17.468830   72.767715   33.244503
H   91.041733   34.716396   22.204638
H   47.635712    1.242860   77.899895
H   65.296928   49.334305   16.705288
H   82.070168   72.429947   76.709076
H   71.644012    6.180430   44.015770
H   88.483231   45.784645   48.874359
H   48.958778   20.035561    1.102535
H   39.087364   32.151924   26.846184
H   18.363396   16.220602   14.874616
H   40.645111   43.121437   40.606266
H   94.678566   28.260258   40.782261
H   75.329788   44.708992   81.394669
H    5.239141   55.188755   69.977982
H   20.637138   13.725307   81.853928
H   80.901978   87.122307   81.588440
H   25.685820   73.556412   22.605125
H   72.271599   40.877045   44.701992
H   11.188583   65.722641   99.615067
H   56.451908   94.902992   89.980476
H   53.787647   16.204714   41.953072
H   56.328976   12.649672   72.341194
H   14.051900   93.560753   77.578934
H   61.061848   56.274410   66.371910
H   43.416676    7.739771   71.098877
H   86.632423    8.125643   63.971447
H   43.667046   31.732544    5.471600
H   37.856785   79.845238    5.818518
H    7.253376    5.519334   14.636669
H   95.664536   10.769501   35.537766
H    2.567225   41.158012   15.484234
H    1.184395   18.515583   70.359818
H   22.538521    9.625491   82.739517
H   48.353237   56.688679   15.911712
H   65.487167    0.584832   83.643517
H   39.391144   12.335323   19.474930
H   87.982666   92.794090   18.509621
H   58.196983   50.916954   81.610619
H   98.884224   26.904560   51.737446
H   98.324654   58.904396   45.342678
H   53.019913    6.342072   48.028332
H   64.523903   13.446397   46.372898
H   40.484215   29.287796   55.055099
H   64.356506   32.490898   98.201843
H   68.779961   81.297478   42.034458
H   35.690929   95.868546   79.404289
H   97.647598   35.354740   18.747448
H   93.282494   43.255997    3.539494
H   43.026291   31.029871   28.526295
H   65.307350   15.052179   83.088493
H   19.215342   81.196274   20.706568
H   10.768840   41.065918    7.053426
H   41.936424   48.589695   36.389107
H   17.282425   17.620539   76.446175
H   43.699619   46.630993   80.219215
H   67.151184   55.179642   46.548050
H   23.906467   35.247040   89.625916
H   65.533882   55.664654   10.254524
H   70.673386   43.987442   85.186172
H   12.693089   70.655540   58.239250
H   79.157753   81.421356    3.508906
H   82.951553   71.029953   78.311501
H   90.484322    0.800022   14.479362
H   18.068840   40.279640   84.166069
H   92.652260   63.983036   68.876907
H    2.368014   21.632158   65.473640
H   92.884041   77.879440   48.652573
H    9.315649   14.954659   39.890083
H   27.598351   99.513336   54.621971
H   32.434937   29.507620   80.829605
H   29.489670   63.920071   40.743515
H   13.022515   30.516327   29.204342
H   28.823704   44.079182    4.577312
H   43.388748   35.627628   36.167061
