100
TIME:    5.090, STEP:  5090
H   73.106606   55.242378   94.485977
H   59.901680   80.683777   99.045898
H   67.248566   40.098541   63.599201
H   82.330948   22.942696   61.164284
H   49.580383   80.743454   27.693340
H   49.091793   95.693718   82.826164
H   86.203194    5.037922   88.497635
H   19.822334   28.951687   40.847294
H   28.506020   96.910538   79.690056
H   35.743065   89.468224    7.007087
H   26.795624   71.049789   49.454540
H   61.572014   78.826134   30.616781
H   19.263565   53.788185   19.253906
H    3.054896   89.387062   44.591888
H   42.413490   15.368251    6.099850
H   96.865265   66.539017   10.526421
H   14.799723   18.635273   36.751129
H    9.914123   47.155224   23.080034
H   24.546890   91.884155   31.522982
H   55.381523   97.723671   62.883492
H   62.228905   49.492325   19.093300
H   50.363602   50.841034   85.817780
H   17.785194   53.225578   86.718796
H   46.123882   97.719452   29.045067
H   47.536041   82.497269   74.130653
H   23.343229   76.185272   11.777746
H   23.162111   30.891197    0.958366
H    3.062938   94.023712   35.020943
H   21.848534   10.896811   16.565189
H   96.167130   64.862175   88.029305
H   16.378246   78.485306    6.674339
H   87.143013   11.882329   28.057228
H   28.889668   96.074165   56.344353
H   93.165619    7.254630   57.317314
H   54.247971   74.155075   34.673477
H   15.102735   84.099083    3.424225
H   67.995422   18.128910    9.537370
H   53.611607   65.807045   81.628456
H   30.221859   70.514885   51.053284
H   83.772087   35.674408   38.504932
H   87.386612   30.833464   62.263897
H   74.160271   40.299866   41.930393
H   55.083988   94.023163   69.128944
H   54.328899   98.078247   78.408981
H   15.136271   31.066307   91.675194
H   12.419220   60.000782    3.839230
H   81.500290    1.648737   74.325554
H   56.511250   47.795319   83.518303
H   13.817429   10.896587   41.432175
H   32.630291    8.204405   27.663002
H   43.156284   78.236679    7.083668
H   52.496620   91.425323   39.913338
H   14.453118   51.522278    7.249243
H   58.816185   24.154961   56.423790
H   35.522034    4.667755   43.640797
H   99.934952    7.179537   19.351196
H   18.936325   42.677055   40.088875
H   47.043350   96.199654   82.448105
H   91.714622   53.834229   20.720570
H   23.131710   19.022038   18.838875
H   80.781555   41.863155   17.539986
H   18.262060   80.565079   65.049896
H   19.620031   59.950729   84.433868
H   92.560585   69.490540   88.945435
H   34.352821   54.314960   69.578545
H   88.659355   89.234184   47.143852
H   79.188080   24.337650   12.807213
H   28.764793    8.639407    9.534034
H   10.586006   84.051399   40.997139
H   33.509735    4.153721   91.015045
H   60.402245   49.076660    1.088358
H   54.272659   82.597656   29.287373
H   75.113678   66.532387   31.240730
H   18.158794   27.273232    0.723616
H    7.581412   35.896587   87.254242
H   45.990349   33.793701   53.436245
H   29.093618   85.379097   81.067696
H   71.117783   17.897366   95.540565
H    5.598149   38.567791   74.474052
H   49.902008   31.740761   82.413239
H   10.475279   81.940048   84.206581
H   23.234131   77.469131   61.154930
H   39.829018   92.242126   14.689118
H    0.334274   47.721603   98.524811
H    4.487925   30.502357   54.333961
H   34.145313   96.017891   95.248123
H    7.104330   33.268463   66.254364
H   37.886520   97.777344   42.809685
H   61.315536   10.769487   86.561165
H   16.313990   99.857346    6.173638
H   32.326469   48.276394   40.953289
H   54.907352   78.296097   30.512854
H   11.732215   80.247261   12.622089
H   39.195877   21.978392   70.010048
H   68.588020   93.797905   33.047825
H   14.334762   94.733673    4.543728
H   58.581993   59.785320   44.458572
H   25.548880   59.575989   74.583107
H   66.237244   58.791286   18.695816
H   55.369312   48.015079    7.404296
