100
TIME:    8.870, STEP:  8870
H   17.480305    8.600330   91.025284
H   55.508316   85.516312   37.386784
H   32.238056   12.047404   19.219963
H   82.965408   67.206413   53.968765
H   15.716333   83.726868   25.202923
H   90.468506   91.598564   57.172447
H   88.093346   60.284119   84.098717
H   22.721786   55.968769   93.779396
H   35.586342   33.478424   41.752476
H   32.488930   43.745060   55.017097
H   75.189240   23.145370   85.345970
H   17.297165   68.297890   61.552681
H   78.139145   25.098488   43.631004
H   15.892312   77.736061   32.251125
H   88.341011   77.720711   24.342751
H   44.880249   35.926414   96.752991
H   10.834418   68.651176   80.859444
H   90.742813   63.224754   92.048904
H   83.418854   50.462048   30.667698
H   53.540424   17.449697   20.243402
H   37.918343   73.181305   16.497618
H   12.755883   55.859039   63.915848
H   67.314919   22.487551   78.568924
H   94.906799   42.939178   48.311237
H   12.342792   82.725052    2.045924
H    5.783695   64.615891   56.176243
H   97.208641   73.762894   75.963181
H   84.116699   70.461319   59.969734
H    4.040259   53.847652   37.881676
H   41.107628   71.306870   88.528473
H   65.148140   17.446079    7.612907
H   25.814381    7.444859   78.123756
H   95.147232   19.510883   96.876602
H   52.880966   60.840118   98.073250
H   60.205940   88.086555   64.712128
H   43.691151   80.168610   91.540718
H   30.547741   79.696053    7.386643
H   97.379539   96.625740   48.371719
H   70.668022   88.155968   84.743729
H   27.738924   81.803871   35.907570
H   29.049376   60.531136   51.317837
H   52.698639   76.386871   32.790485
H   87.622406   16.696476   42.161907
H   12.965488   61.531021   47.995335
H   87.248932   81.935020   15.141232
H   63.628235   32.092480   19.196669
H   11.038880    7.218622   10.611446
H   56.729000   86.728119   17.402470
H   24.309708   97.837624   90.645813
H   11.965239   65.741386   63.343609
H   42.892536   13.302155   46.931915
H   36.211529   40.668827   91.775581
H   92.855904   73.440002   87.716995
H   71.280029   62.486794   23.224461
H   34.552742   35.929138   75.785828
H    4.643333    3.203344   90.671051
H   58.570099   33.606544   99.598152
H   65.577332   39.225471   85.083641
H   89.835899   13.557633   30.535353
H   73.689491    9.565122   11.326683
H   19.226927   66.073364   22.821392
H   84.104271   45.381363   94.014977
H   76.245697    2.009732   25.227936
H   52.127590   90.081665   86.318741
H   84.388992   52.412434   21.593298
H   56.450752    1.319705   70.647987
H   75.911636   55.019314   95.305038
H   67.654160   24.822529   90.239899
H   98.980347   12.444695    3.920854
H   10.170089   94.162247   83.030487
H   40.365101   91.884560   55.752998
H   42.844124   57.081444    6.213858
H   28.651169   79.563652   34.323132
H   34.945400   88.037514   76.128517
H   89.748444   41.375828   73.831039
H   35.350090   76.057487   99.091507
H   72.367996   58.080288   48.054443
H   48.703251   70.738548    4.305447
H   86.862221   27.464733   16.645517
H   64.532188   25.828722   56.762779
H   84.460365   21.046579   10.131030
H    6.894325    1.995749   44.939522
H   78.921837   55.455967   74.677513
H   60.389824   71.184303   53.279148
H   20.435776   94.049301   87.906708
H   47.149975   34.863266   57.742950
H   59.562092   58.430901   46.499062
H   98.683037   95.288124    3.609784
H   39.763432    0.305400   55.645638
H   82.111923   44.341339   41.297600
H   87.019615   52.383648   20.780296
H   34.589077   62.588135    2.538598
H   54.037571   93.658867    4.935298
H    4.516856   51.305531   24.888384
H    3.232510   55.209866   19.909243
H   26.547256   45.464905    9.301945
H   58.543358   76.709923   27.066895
H   21.156160   25.348377    0.814379
H   86.166801   75.105003    2.081108
H   90.161514   51.013981   43.265186
