100
TIME:    7.125, STEP:  7125
H   35.487137   68.624214   92.622879
H    3.701986   90.956718   27.358898
H    2.242885   86.505333   39.704967
H   82.672516   39.101166   49.617992
H   31.352797   43.857510   72.517410
H   17.527805   93.489052   84.358994
H   79.548248   42.452259   47.637432
H   59.875343    5.005653   54.000717
H   78.481773    1.253595   51.594250
H   80.150520   18.689440   86.690315
H   37.504883   52.932346   53.432884
H   83.899597   80.830154   85.764091
H   89.412041   30.717876   17.043938
H    2.294250   83.114632   99.454735
H   67.146248   33.592705    8.262302
H   15.042595   88.550354   41.604004
H   51.157021   53.233189   22.005213
H   53.432446   48.136459   52.535767
H   56.236912   77.256561   38.734081
H    0.559858   54.503208    1.435768
H   41.469116   46.901550   63.855183
H   45.461029   53.542526   12.518677
H   90.613182   36.675056   28.496511
H   57.043442   22.063936   77.909698
H   74.753609   21.111626   89.159645
H   14.012310   16.056362   20.388334
H   47.682568   46.299866   41.339909
H   31.355232   89.010628    2.285871
H   66.097115   95.528023   20.369349
H   74.197449   14.496305   49.805412
H   96.468132   60.967255   45.671684
H   15.633949   55.652866   39.667107
H   72.233284   47.183144   39.673225
H   79.149773   20.758865   71.586502
H    3.634061   20.207527   58.543625
H   92.002022   43.489639   97.025795
H   63.178276   43.603149   69.887482
H   69.501396   28.561359   25.233063
H   44.324596   26.174170   53.846741
H   92.098167   45.164921   98.614304
H   48.308014    0.661085   10.206858
H   99.757637   69.543839   43.703587
H   72.605011    6.228678   16.120724
H   24.388645   32.235435   77.379875
H   38.614853   50.774609   65.815620
H   86.154106   98.815323   12.107340
H   97.398727   12.319551   93.857033
H   56.622494   68.755173    9.432327
H   73.299263   42.357075   60.256897
H   75.330322   39.180492   85.352272
H   43.012356   81.770569   28.534199
H   51.403782    2.591165    6.324902
H   56.667675   63.321899   89.059883
H   11.695328   90.951324   46.222366
H   73.491714   83.006050   60.952084
H    2.469938    5.038915   50.074982
H   47.945156   83.957420   33.634331
H   95.513840    4.018769   30.032652
H   52.209854   39.822849   64.498558
H   88.842537   75.439865   60.958641
H    9.150753   47.225426   58.873840
H   46.037758   61.623581   72.971542
H   57.777828   21.085854   44.887817
H   32.300304   80.575974   33.696056
H   15.125468   91.782257   59.089298
H   63.647430   88.068565   67.469452
H   15.916365   94.692749   11.056861
H   88.193153   25.024065    6.818801
H   12.010109   37.829269   13.364312
H   74.734825    6.507878   86.729919
H   95.780708   10.616822   76.681496
H   86.534416   15.029790   78.307152
H   42.428253   65.878922   79.064758
H   73.357491   98.478699   79.810516
H    5.690392   38.806362   41.523914
H   94.095146   64.219994   16.507650
H   13.884742    9.113102   17.104239
H   66.725784   84.834282    7.925748
H    3.184108   32.590351   97.172798
H   50.108047   20.887108    7.096097
H   50.298462    2.993746    5.834074
H   75.950386   90.677399   90.926903
H   68.548561   26.273230    8.491644
H   40.338093   21.860874   12.659029
H    5.401213    3.210638   57.063515
H   87.308456   70.769150   36.564941
H   43.017429   85.306923   63.290855
H   70.618614   34.924046   21.702721
H    3.546249   97.464149   69.917488
H   36.392925   16.133259   78.917557
H   15.607105   58.159843   83.928757
H    5.476748   31.347019   69.282936
H   42.179646   41.305225   69.991768
H   35.870361   45.438316    7.226779
H   33.406517   11.514954   79.811584
H   82.417358   14.373664   99.433189
H   97.053703   76.568924   27.424118
H   24.524424   39.004292   35.847580
H   69.294518   67.569679   48.244450
H   81.772072   95.796036   11.365987
