100
TIME:    5.960, STEP:  5960
H   14.272108   75.459831   93.689468
H   35.873665   27.827314   53.903477
H   82.209656    2.690728   53.383976
H   82.476974   87.097687   13.474521
H   41.787872   50.477707    4.105886
H   35.597607   94.751183   68.985863
H   40.606472   63.786816   56.532841
H   51.442047    4.218375   60.967419
H    7.119759   13.263785   24.925768
H   11.972094    1.960298   41.075840
H   45.870346    6.056171   65.651207
H   28.364235   22.434391   68.689781
H   63.746933    1.176837   32.806084
H   59.977180   86.705482   10.798046
H   52.993782   37.655960   64.282501
H   61.885254   90.445534   38.309296
H   44.839424   76.177803   15.950659
H   28.518698    4.825287   92.921425
H   38.096004   28.382517   77.357361
H   31.944252   79.244667   22.117090
H   10.601860   62.881443   95.479515
H   33.771347   51.995972   11.729187
H    6.168168   46.149925   61.827896
H   65.289024    8.127169   64.433121
H   16.420761   13.501472   80.555824
H   19.377279   50.467819   29.966240
H   48.141815   94.726273   18.221586
H   29.654591   34.632347   63.781548
H   40.765617   89.830048   75.439972
H   29.525383   43.329887   57.191360
H   50.619972   56.499561   37.842705
H   42.075199   87.843781   47.516991
H   90.171379   32.419838   34.720825
H   29.926487   27.524193   20.665663
H   32.622757    8.389000   87.650909
H   90.730499   52.241676    0.688092
H   51.440094   86.266724   78.090065
H   17.655571   49.884258   43.021687
H   93.497925   51.557976   66.744026
H    1.828436   54.228657    6.954405
H   27.927460   60.682632   82.760719
H   97.937531   64.975281   84.227715
H   62.577808   99.240295   31.971481
H   98.778519   12.681295   63.472168
H   39.669872   96.742050   66.123642
H    1.192597   76.594711    7.374350
H   88.297165   48.963394   82.675621
H   56.557713   56.756042   37.348927
H   39.245972   38.842346    6.726279
H   50.876980   21.446363   66.812668
H   43.092350   94.243622   16.255089
H   94.777962   10.695652   82.799110
H   32.500538   56.566833   56.722576
H   38.671150    9.957898   94.815514
H   66.250877   80.911148   51.041691
H    1.018932    6.264381   89.734329
H   74.089134   17.573753   22.833168
H   82.261871   14.039045   60.039658
H   60.328209   90.593285   53.932396
H   65.718918   85.893417   94.094017
H   35.662464    1.405235   49.706715
H   87.385872   72.467239   25.682625
H   78.685448    0.582944   24.775360
H   52.302887   74.229767   65.328949
H   68.887177   84.829086   50.598072
H   35.213615   45.983757   98.585045
H    9.386284   54.413342   54.811295
H   68.667763   58.396214   51.125065
H   53.949062   21.538734   86.431763
H   51.132492   47.913506   89.183075
H   32.776665   89.882339   90.653816
H   82.537613   53.724213   92.985001
H   18.388180   23.500610    8.931847
H   99.008965   72.209679   49.030235
H   49.525845   37.137814   53.206680
H   66.559364   89.552910   94.897461
H    8.083957    9.972479   96.453590
H   11.991969   61.011879   43.588890
H   47.315662   36.012325   84.178185
H    7.241289   84.349953    7.461865
H   27.500116   90.940598   36.203770
H   88.526749   83.122253   88.386711
H   94.857414    6.791179   97.543228
H   60.187027   22.169262   19.063541
H   62.126701   76.084267   69.997253
H   14.119755   27.974075   55.663727
H   65.209648   70.012230    7.739319
H   51.882195   28.148069   33.781845
H   79.369736   62.328880   79.445686
H   39.394634   64.067551   37.272949
H   67.930412   95.254913   59.326092
H   19.278543   43.727982   47.086876
H   67.500977    6.347761   79.900528
H   23.278759   74.759468   28.672579
H   53.547279   15.868694   53.040195
H   86.193130   60.377594   59.607193
H   89.525841    9.712821   94.424011
H   26.773149   81.358810   59.232552
H   24.792236   62.541515   45.825195
H    9.410482   25.691982   23.594654
