100
TIME:    4.136, STEP:  4136
H   37.621002   42.729004   95.359390
H   86.249641   28.987352   38.893814
H   50.848793   71.464500   74.793709
H   82.170822   62.247124   13.454309
H   58.125275    4.276141   53.560318
H   63.888866   96.727257   88.347984
H   36.202709   40.620571   13.893594
H   94.804848   46.417965   28.440029
H   51.957161   88.633774   39.740566
H   61.814445   75.770195   69.652893
H   15.534378   32.663288   41.348972
H   97.979271   31.006769   98.524574
H   80.140457   11.477837   14.048416
H   50.290245   92.327553   71.992264
H   30.811279    0.583536   51.959614
H   35.225555   49.979424   89.716736
H   91.514534   55.533863   49.904747
H   89.520714   93.566826   56.154217
H    9.687950   51.865074   81.262512
H   81.086540   17.983606   97.930779
H   18.840607   44.465908   44.984535
H   58.902695   49.574585   67.059677
H   30.522469   60.984398   14.013892
H   34.762306   86.286499   99.896866
H   81.657379   58.154999   67.085121
H   27.692099    4.382969    1.488339
H    5.426550   70.550125   82.034096
H   83.558014   49.494202    3.484175
H    1.103729   24.342144   61.661171
H   59.585678   88.473442   12.188885
H   78.833717   92.938911   82.151787
H   26.906630   38.237854   16.373787
H   61.692844   65.872856   70.400497
H   52.857605   94.683105   97.508873
H   77.961136   46.270287   76.581284
H   32.172657    9.378428    6.425536
H   76.494736   53.066879   34.365833
H   93.044289   83.260750   14.308193
H   70.492310   91.302116   43.502861
H   73.627831   24.984547   63.447392
H   52.585220   98.101700   39.788067
H   59.901016   97.483002   97.114639
H   46.866627   88.302307    0.222024
H   15.247492   82.086029   85.130737
H   97.888603   68.704041   10.039203
H   24.727596   41.804676   99.961159
H   74.047165   49.767906   65.169273
H   56.460300   37.969421   24.490135
H   85.929794   89.906464   79.488190
H   12.621852   93.687080   94.387794
H   43.229069   70.339333   97.026138
H    6.134974   79.949768    2.540127
H   94.666054   45.990662   62.658398
H   80.911827   39.723549   14.326808
H   11.479677   21.057207   35.525333
H   98.741287    8.183218   51.827606
H   58.454937   70.204124   49.355507
H   18.080559   86.293266    7.020723
H   16.474684   13.524660   93.959999
H   86.085510   45.695385   45.972908
H   20.602705   86.228905   91.921120
H   52.119896   89.444778    8.212235
H   54.854298   25.050079   49.852531
H   27.050776   64.293732   14.846302
H   96.486656   30.508171   80.736565
H   47.264046   36.659920   90.736404
H   55.729630   91.355103   66.748337
H   94.663811   54.079727   63.927319
H   63.041740   52.599747    0.828822
H   14.182116   56.172638   93.023895
H   90.695122   13.986206   12.533257
H   32.935295   14.259482   59.441410
H   37.317032   13.723690   55.703575
H   39.161526   87.645348   57.406822
H   61.582790   34.535519   14.934775
H   23.434458   72.652550   17.629536
H   42.477058   68.066452   64.196266
H   26.297131   80.278175   42.856277
H   59.847260   41.369991   63.832855
H   96.687836   83.698784   64.601128
H   91.809921   72.070480   27.187574
H   51.654694   71.238785   40.928101
H   79.482124   76.295410   23.833569
H   34.700546   66.085518   85.657242
H   50.940720   90.175117   46.813553
H   56.104374   60.978844   28.999741
H   43.388817    2.632033   20.764097
H   22.531252   74.156136   52.730202
H   41.518173   63.886284   94.363655
H    0.660062   39.109962   72.067688
H   93.284729   96.764244   20.806559
H   84.318542    6.549892   12.336269
H   50.579079   51.618576   38.847759
H   46.988384   64.113297    5.688313
H   85.080971   79.252190   11.128215
H   35.538254   32.404427   53.819206
H   34.305756    5.037241   99.323471
H   22.047949   51.453247   89.853279
H   11.683678   54.678967   98.602684
H   96.114662   72.495003   99.305588
