100
TIME:    6.844, STEP:  6844
H   54.490311   94.393410   92.880142
H   11.461830   75.731026    9.640967
H   97.411499   66.288734   43.004368
H   82.625351   50.678009   65.021484
H   33.869965   21.334120   80.136688
H   21.886272   93.793480   56.531116
H   94.276566   23.476955   25.662867
H   81.961388   80.694641   79.800758
H   85.389290   28.270798   69.282600
H   87.825539   14.654516   75.688026
H   63.642822   41.625629   80.500420
H   94.623184   66.744995    5.766049
H    7.336899   47.718700   44.967216
H   16.207340   83.980751   78.071877
H   63.733223   58.693016   21.775051
H   26.341808   13.127844   64.929199
H   73.753304   34.648067   96.424660
H   47.423206   61.809998   62.275322
H   51.861294   65.469620   23.930729
H    8.129829   60.469570   82.303978
H   58.144058   74.875946   71.482994
H   18.521286   53.169495   36.448441
H   94.364937   38.960411   36.536453
H   83.151939   18.702364   98.778030
H   84.804024   43.397049   87.084389
H   15.337215   24.339165   46.832375
H   71.913918   57.981758   35.763729
H   55.064209   75.894493   92.998276
H   59.987114   70.033241   33.651764
H   63.422413   21.451103   27.466610
H   85.410103   35.770470   67.903511
H   97.891724   63.415783   65.680702
H   52.439915   67.742760   14.358525
H   67.277077   46.510910   83.424896
H   10.627701   41.483192   41.446342
H   67.574883   21.480263   97.909065
H   36.227814   53.893677   47.745701
H   81.116829   33.704479    5.404467
H   56.186573   32.296013   81.078049
H   18.565483   71.471619   76.506821
H   67.512711   91.018135    3.587146
H   23.439056   68.441895   29.358822
H   70.186737    4.543068   95.823936
H   42.330608   27.518942   49.905266
H   62.988396   61.860508   41.770084
H   89.781517   93.455673   10.965734
H   95.203415   97.037369   91.160057
H   56.605343   65.860962   92.045883
H   65.083992   65.628822   71.465714
H   69.430420   34.903492    4.998949
H   43.031651    8.899263   25.572456
H   37.745251   28.666878   24.770424
H   50.838520   61.692566    5.379324
H   18.201942   95.534897   33.822281
H   95.865036   58.381187   58.561680
H    2.119953    5.334499   59.640884
H   30.131823   92.065498    6.908791
H   16.437475   30.556498   37.270615
H   30.048775   27.948009   86.070076
H    7.386286   53.841610   68.950951
H   91.425041   60.292252   80.783585
H   56.010994   64.239090   85.684631
H   38.699619   40.261147   64.156830
H   13.004478   79.045258   41.326054
H    3.971941   14.224960   32.921345
H   80.909790    2.037882   50.854538
H   38.461960   84.976776   97.489761
H    7.603870    8.952621   93.385376
H   98.004921   58.020142   30.988903
H   69.040733   92.374931   87.321625
H    4.703835   29.735916   80.051643
H    9.658738   24.380291   57.713234
H   60.749680   79.775421   86.268127
H   79.544670   16.263069   96.506897
H   92.148064   38.399014   20.219807
H   87.453468   46.209454   35.415230
H   88.363861   33.435192   12.120836
H   53.523891    3.207373   92.407570
H   89.708214   33.415737   94.038475
H   63.888779   36.195045   31.304375
H   44.799461    0.086002   89.039276
H   54.864311   88.855118   14.435734
H   50.774368   21.573889   81.731461
H   21.006298   97.814720   38.323246
H   19.083326   20.788528   84.303398
H   93.774338   60.447868   17.051529
H   24.250078    5.738003   49.891731
H   66.099358   57.410992   24.616226
H   97.714462   13.109556   72.215706
H   61.238117   27.695095   68.871429
H    4.107350   42.987747   77.994553
H   84.685593   10.213775   63.927605
H   24.166935   32.873425   48.261604
H    8.713313   28.390345   88.279449
H   38.264503   36.686012   73.354279
H   59.207932   25.469290   13.947632
H   19.357870   60.442810   43.584839
H   25.066820   25.100830   41.488075
H   82.680779   66.356255   71.781181
H   64.316765    3.007430   38.436413
