100
TIME:    7.226, STEP:  7226
H   28.657003   59.361977   92.530411
H    0.912864   96.429298   33.727367
H    3.979073   93.771797   38.519062
H   82.689468   34.940094   44.081455
H   30.447763   51.953106   69.778809
H   15.961244   93.379631   94.360977
H   74.254440   49.272564   55.535763
H   51.936943   13.743293   44.726921
H   75.999001   91.542862   45.236286
H   77.391884   20.139650   90.644875
H   28.110107   56.996326   43.704453
H   80.045212   85.892792   78.574684
H   82.971626   24.604954    7.006903
H   97.293358   82.803322    7.141079
H   68.372993   24.570885    3.405315
H   10.981312   79.716553   33.220215
H   43.035225   59.913250   31.199640
H   55.592350   43.221771   49.035072
H   57.809643   81.493149   44.054859
H   97.838364   52.358715    8.312235
H   35.475632   36.846397   61.114269
H   55.143997   53.676605    3.917633
H   89.264687   35.853630   25.606493
H   47.658684   23.272188   70.408981
H   71.141182   13.101562   89.905556
H   13.536098   13.079269   10.883649
H   38.972828   42.101036   43.344158
H   22.833126   93.724968    5.624553
H   68.293236    4.691514   15.595289
H   78.070328   11.996387   57.834740
H    0.442786   70.024261   37.680885
H   22.011166   52.862637   30.317024
H   79.347176   39.793388   48.772102
H   83.417183   11.502887   67.331421
H    1.120361   12.560402   64.688828
H    0.781862   51.400299   96.708321
H   72.865799   39.904419   77.845917
H   65.326454   26.712765   32.360054
H   40.061039   23.973810   44.058975
H   82.584724   35.709270    6.560727
H   41.405258    4.126393   12.586182
H   91.245934   69.939911   48.859463
H   73.474213    6.834538   23.415699
H   17.939754   33.930687   87.255486
H   29.854160   46.789997   74.458321
H   84.850304    0.741624   12.517668
H   98.187790   17.812550   94.826408
H   56.628658   69.795441   15.681448
H   76.252083   33.992550   56.227592
H   77.450928   40.717777   78.290779
H   43.005421   72.019791   29.598740
H   56.312328   93.219376   99.694672
H   58.762852   63.907532   83.194313
H    9.356651   89.303848   50.679337
H   65.450058   91.856804   61.811268
H    2.595733    4.932673   46.636703
H   54.347813   81.043129   43.240242
H   87.993088   94.480537   27.430826
H   60.175224   44.091030   56.745094
H   82.177116   83.202576   58.085960
H   15.522009   42.528809   50.999397
H   42.453072   60.683487   68.402069
H   64.635048   14.193551   37.961945
H   39.236195   81.126160   30.953602
H   19.134354   83.715942   68.494865
H   57.442810   83.047539   73.441360
H    7.812680   98.184967   15.933406
H   81.216423   30.800634   11.647185
H   17.044083   30.572052    7.029658
H   76.781456   11.588017   86.517242
H   92.573601    3.744697   75.470161
H   78.223061   11.668761   85.709236
H   35.842972   60.883610   76.475647
H   71.133629   92.086060   73.809326
H   10.555379   38.955082   49.181828
H   96.482368   70.692772    9.711797
H   23.057934    0.371078   18.895426
H   71.470947   78.230507   13.503705
H    8.027238   32.293682   98.299370
H   45.154831   15.384883   98.394936
H   52.275734    4.038644   11.870900
H   83.529701   91.332382   82.476845
H   74.936577   27.962317   18.110504
H   47.286312   30.503960    3.434404
H    0.483442   96.892296   47.272667
H   84.984421   74.478668   43.578659
H   49.762989   77.963402   68.106911
H   72.242973   26.841795   20.655518
H    5.642485   91.840538   69.091438
H   27.462999   11.977581   82.528442
H   19.740437   63.613159   86.061691
H   12.949724   38.943253   71.207817
H   48.653965   44.335873   77.802254
H   45.631157   51.565880   14.036885
H   31.660332    2.467764   82.132538
H   90.759537   10.385392   94.216438
H   89.036705   82.365143   21.615185
H   24.329470   44.001431   33.820213
H   64.483086   68.005821   39.784374
H   88.046043   93.203842    1.636155
