100
TIME:    4.504, STEP:  4504
H   12.735371    8.981592   95.022476
H   76.086067   48.929855   62.098770
H   57.174355   97.940331   70.475594
H   82.232590   47.085991   93.283089
H   54.829132   33.772964   43.582047
H   58.180981   96.328575   24.792112
H   16.916088   65.470627   42.671673
H   65.880775   78.254791   94.651131
H   42.911018   53.252182   16.575853
H   51.757561   81.054131   84.061584
H   81.303925   47.470661    5.901772
H   83.935570   49.452812   72.329506
H   56.657547   89.223946   77.481934
H   32.068810   91.193275   99.995438
H   35.286995   67.711975   34.268818
H   20.428314   17.792900   59.169861
H   61.922249   79.874924   83.405235
H   97.383949   75.667503   43.394482
H   15.419701   67.303558    0.651831
H   71.170036   10.168604   22.985849
H   97.002983    7.829313   34.997841
H   94.183212   50.063110   35.721054
H   25.609138   57.991478    3.484626
H    0.571068   90.700073   72.567520
H   68.495270   28.969818   69.802895
H   26.014547   93.505249   66.881721
H   73.694603   55.252621   89.333900
H   52.506809   66.671204   15.648879
H    9.106076   57.730007   44.265175
H   73.696762   79.365532   41.443306
H   93.315407   25.938206   53.036797
H   50.142467   28.071472   82.306221
H   87.613014   38.947807    3.552845
H   68.406189   60.958008   82.005211
H   68.813919   18.452415   98.991684
H   64.162643   38.201588    5.267745
H   11.791555   39.590317   63.362904
H   77.832619   76.528084   40.275890
H   54.958935   83.283562    7.841457
H   38.967018   90.533745   92.399597
H   27.434841   10.728162   48.457989
H   26.827286   13.999354   14.403238
H   50.036427   90.509094   26.802828
H   91.748550   88.251556   21.112341
H   65.965996   54.184944   41.530415
H   19.979916   48.823719    1.457086
H   76.922165   69.780602   68.701256
H   56.479954   41.759705   47.259911
H   96.688583   59.427395   64.809967
H   20.339993   99.285469   68.647560
H   43.200993   34.811745    0.906105
H   24.018091   45.802029   78.383118
H    2.297840   48.124451   41.284008
H   72.387901   33.718056   30.564663
H   82.179565   53.308308   38.655827
H   99.201736    7.795952   39.300018
H   81.785568   59.585716   84.355263
H   90.678604   51.540581   97.541611
H   45.497025   29.074535   65.709755
H   61.799877   73.981140   35.506111
H   43.816772   69.113670   63.227348
H   39.058861   86.019485   91.561890
H   79.837502   99.937790   24.617668
H   52.321861   66.298370    4.853992
H   11.093125    1.116551   15.006953
H   24.657112   18.365486   12.495034
H   26.204451    4.078655   84.514938
H   69.243645   75.125626   81.519844
H   81.381241   26.157608   77.750122
H   21.637743   74.681641   92.248993
H   79.009819   88.947479    8.118279
H    2.592271    2.045817   86.383781
H   13.322042   95.521217   46.267174
H   31.058743   64.358971   35.541100
H   79.326546   35.060543   42.832119
H   32.135262   96.236534   92.867722
H   75.889511   36.169468   70.704323
H   43.586437   56.215984   63.180618
H   77.495277   40.289059   67.937706
H   78.640472   63.657963   32.897514
H   99.008652   75.877609   49.182140
H   79.266060   73.642105   10.155619
H    2.761486   82.442078   58.882984
H   60.016830   97.575752   52.045448
H   33.022507   67.158272   11.140065
H   47.633793   74.495338   54.554672
H   67.966698   75.875427   38.311707
H   28.453920   44.693001   48.903419
H   49.154892   43.396294   91.353889
H   68.125351   23.968483   85.224182
H    8.344962   16.635277   28.578043
H   11.547790   34.224335   19.348391
H   74.168678   62.660934   67.305771
H   82.556625   86.433853   30.500597
H   78.718910   46.289253   19.583759
H   65.933517   17.873566   34.811638
H    5.096337   26.155773   78.159653
H   23.398413   54.586548   83.962898
H   94.153076   56.265270   67.780663
H   18.972322   63.050465   63.856602
