100
TIME:    5.603, STEP:  5603
H   38.413979    8.198377   94.016312
H   45.733437    8.481181   31.392185
H   76.070450   77.006424   57.575741
H   82.417053    1.805791   33.043060
H   44.985489   21.862581   13.785213
H   41.134876   95.137947   33.629978
H   59.315525   39.679401   28.614977
H   79.501541   73.331985   93.744606
H   15.895500   47.587830   47.398537
H   21.724985   96.834145   27.097006
H   79.077621   91.691589    0.040561
H   41.990875    4.540159   94.101845
H   86.527908   22.766193   68.279472
H   77.653954   87.805855   83.630867
H   48.652214   69.544968   81.441772
H   76.239120   21.670303   67.943085
H   73.547157   52.564693   83.451538
H   20.884184   22.195644    5.297323
H   32.536945   13.404925   58.548321
H   41.561615   86.827431   97.810951
H   31.786751   98.420288    5.169674
H   99.545410   51.522049   42.131058
H   10.935182   49.053383   72.041748
H   98.458168    3.856417   90.945557
H   29.188076   41.814270   77.919289
H   21.004686   61.022133   63.535851
H   78.926407    9.566130   11.137726
H   59.776028   17.968788   51.979782
H   33.003090   57.439884   92.315979
H   15.837452   52.165550   28.810623
H   36.568436   24.487667   66.087410
H   19.533909   97.709000   80.566292
H   65.026237   58.540062    2.559445
H   14.841361   60.241203   35.704872
H   41.496552   35.376358   65.910385
H   59.696735   24.279858    1.810837
H   17.199951   99.340454   49.959759
H   32.410122   56.418400   17.830242
H    8.566701   59.336845    1.340341
H   35.453648   87.649178   78.867332
H   52.326080   48.434181   74.349953
H   28.054596   63.325218   66.028481
H   59.502758   97.099472    6.185144
H   21.573643    6.689095   28.567896
H   70.636131   10.827386   35.574688
H    5.799474   69.785477    5.923983
H   85.508102   29.548733   79.249214
H   56.538647   53.079056   15.259772
H   28.811501   68.408447   20.967556
H   43.389545   16.012594   91.783493
H   43.117146   28.710318   12.491672
H   77.428032   43.823063    6.234431
H   25.094814   54.496826   77.456291
H   46.937561   15.783198   79.061668
H   94.675346   49.625546   48.004772
H    0.574248    6.639911    1.887466
H   51.456749   27.874763   88.879295
H    8.844890   47.753654   69.234848
H   32.173386   75.509468   81.338203
H   89.278870   58.454372    4.247932
H   13.141909   18.006912   77.541466
H    0.056487   75.790146   41.836853
H   54.448948   24.944597   49.255920
H   27.787151   72.285049   75.019852
H   54.716736   13.341450   17.352064
H   57.144798   63.731346   77.476418
H   38.029724   42.072285   37.575760
H   93.328087   37.979404   34.058399
H   36.155170   47.190483    8.821355
H   43.901085   29.956348   89.934814
H   44.112679   14.172632   94.935463
H   11.974531   65.572281   66.848434
H   41.665665   41.158318   18.086182
H    6.867252   94.805443   70.242363
H   32.314823   36.628483   26.143764
H   58.119461   66.673882   18.919001
H   75.671593   40.915394   90.140068
H   95.219452   84.354286   23.872072
H   30.197247   37.060947   80.196144
H   24.747467    3.796998   38.217712
H   20.513842   87.247269   14.867410
H   61.731277   80.807114   18.249846
H   72.277992    0.821274   63.546047
H   35.627480   91.619675   51.668880
H   79.509315   98.413109    4.604435
H   22.337139   14.860850   30.872665
H   41.366432   95.969032   90.716110
H   46.140648   56.716709   37.483345
H   71.961288   82.206398   82.365486
H   70.958923   78.753708   24.511644
H   53.320518   75.976608   51.786907
H   92.864159   16.878576   40.285812
H   44.616501   95.636635   52.293171
H   88.776161   53.100658    4.600848
H   59.719170   47.847584   44.836430
H   56.706421   74.475433   78.046600
H   17.862673   89.225517   14.955714
H   27.431479   63.943871   66.371788
H   41.798981   61.002628   75.727562
H   87.235062   34.852703   57.986736
