100
TIME:    2.904, STEP:  2904
H   20.936569   55.709709   96.487320
H   20.490273   62.196663   61.183430
H   29.671911   82.829697   89.250008
H   81.964035   13.005159   80.985535
H   69.160187    5.525907   86.965836
H   82.988533   98.061974   66.339592
H    0.772565   57.430771   17.549522
H   91.637619   39.834545   41.558659
H   82.242073    7.085623   17.290203
H   95.483147   58.080498   21.406801
H   30.132019   83.091385   60.020672
H   45.004105   69.253220   86.219475
H   58.537758   86.011230   36.495087
H   11.292014   96.124916   78.236122
H   15.823914   10.630467   11.179036
H   84.760468   57.734650   91.983742
H   90.584663   74.046906   37.750927
H   63.202072   53.479164   98.866882
H   90.497185    0.177868   16.357058
H   14.281219   44.144695   14.050409
H   91.949249   67.115814   78.422302
H   40.789658   47.939087   71.975861
H   46.971443   71.004173   49.263962
H   49.228455   71.510620   91.397011
H   25.719902   55.858452   57.987717
H   33.343372   41.079281   16.979757
H   11.663269   21.760717   57.593159
H   87.510826   91.988625   62.765026
H   74.315323   12.565764   19.898462
H   12.345998   18.966354   14.248348
H   30.345175   82.462616   79.623711
H   49.117470   72.275414   30.426216
H   74.912079   56.011665   59.412209
H    0.801513    7.588504   49.409683
H    8.585332   39.400085    1.562979
H   25.046078   12.608770   10.657365
H   58.329651   98.184067   37.289059
H   43.962921    5.802693   27.368839
H   22.493347   18.143663   62.893021
H   89.669083   40.320557   66.516029
H   36.783489   55.824955   10.763103
H   70.626183   42.191940   39.233047
H   36.254688   80.914368   11.232940
H   93.919586   61.443748   64.670738
H    4.755503   17.315197    4.613704
H   40.622005   18.306141   94.960670
H   64.422165   82.766754   53.336342
H   56.394505   25.282701   48.260979
H   49.914917   91.940666   28.631784
H   86.787682   74.944649   80.554718
H   43.323063   89.280762   84.036148
H   46.261189   94.269470   83.419762
H   69.118446   38.847107   34.209335
H    9.445339   59.828896   59.961823
H    9.571716   13.082984   25.048105
H   97.199783    9.479986   93.767792
H   80.352364    5.753022   32.182106
H    9.818610    2.640341   38.756180
H   19.309448   61.469921   88.541679
H   67.383499   50.999866   81.013924
H   42.887581   43.521984   87.977249
H   95.845970    0.912238   63.959831
H   71.213921    9.119089   34.334488
H   42.452065   57.591537   48.298817
H   47.587749   28.906036   66.006004
H   22.947731   97.906502   17.891857
H   54.575325   48.760319    7.266901
H   79.766548   83.619690    5.030593
H    1.635817   41.123405   78.099251
H   89.220032   94.205147   95.618134
H   29.818104   97.811134   27.313835
H   34.519272   55.147034   69.240082
H   17.645369   74.661736   87.288078
H   66.284599   65.610001   30.615196
H    2.185965   32.777828   21.541012
H   94.308556   93.691643    0.527883
H   30.618998   74.848038   42.408421
H   68.415527   60.836475   74.817856
H    0.771446   44.988766   50.081512
H   57.107735   50.796703   70.739029
H   67.709824   59.324871   53.553822
H   59.215500   63.192886   43.947121
H    1.535071   55.729492    6.491558
H   49.940266   60.660614   98.181946
H   10.928327   67.238861   66.242210
H   84.455627   15.722355   43.445858
H   61.106316   92.208458   62.017242
H    2.703188   72.793182   65.542732
H   15.948822   32.481529    4.441329
H    9.585505   89.796219   28.029285
H   42.866272   30.239838   94.788895
H   93.157669   13.903719   88.858086
H   71.606659   14.650593   43.575218
H   27.910305   89.381828   22.620846
H    6.381128   89.606689   82.818108
H   33.780106   81.055794   17.453827
H   32.096085   34.335018   70.177849
H   17.526831   40.963501    9.569851
H   70.373619   49.368298    1.796567
H   19.590090    4.113555   17.987734
