100
TIME:    4.748, STEP:  4748
H   96.235023   86.605598   94.799088
H   69.347176   62.152603   77.483032
H   61.368477   15.494159   67.612495
H   82.273544   37.033501   79.909554
H   52.643646   53.330643   36.966019
H   54.396404   96.064232   48.956905
H    4.128380   81.945541   61.752789
H   46.702858   99.365021   72.248970
H   36.913033   29.792648    1.216506
H   45.089409   84.557610   93.615173
H   58.607635   57.288593   82.397812
H   74.623985   61.683342   54.961037
H   41.087357   74.469124   53.236816
H   19.988132   90.441200   18.564592
H   38.254341   45.916687   22.539803
H   10.616898   96.451492   38.915955
H   42.301277   96.014755    5.617521
H    2.600829   63.794430   34.935497
H   19.220100   77.538483   13.506090
H   64.594963    4.986917   39.598518
H   82.523674   83.538971   28.375717
H   17.575729   50.387024   14.942184
H   22.351387   56.007042   96.503494
H   77.900833   93.626465   54.445992
H   59.768219    9.618774   71.604897
H   24.902258   86.293518   43.937611
H   52.654106   45.108913   94.173988
H   31.919678   78.060303   23.715052
H   14.412023   79.867821   32.730873
H   83.053024   73.326591   60.840889
H    2.917794   47.817524   33.732292
H   65.548836   21.330719   59.717903
H    4.799437   21.095900   25.534292
H   78.715576   38.596802   71.725609
H   62.748917    0.007553   13.849030
H   85.373398   57.312489    4.500079
H   35.194183   30.654629   82.589218
H   67.746620   72.064034   57.493572
H   44.658855   77.966911   84.196014
H   15.985258   67.692253   11.596697
H   10.759808   19.099653   54.206524
H    4.897428   24.950232   25.865221
H   52.138142   91.972290   44.426605
H   76.167191   92.339569   44.969826
H   44.801609   44.558754   62.409809
H   16.831997   53.477650    2.448987
H   78.828415   83.049889   71.043114
H   56.492985   44.272827   62.357262
H    3.821244   39.220028   55.075958
H   25.457455    2.998945   51.582024
H   43.182377   11.254589    3.478333
H   35.875679   23.160089   62.365959
H    7.359183   49.539246   27.112181
H   66.736168   29.736153   41.331871
H   62.752197   74.693123   40.731480
H   99.507034    7.539288   30.993683
H   97.255234   52.545250    7.561759
H   72.509659   28.497896   91.256943
H   64.740166   39.384186   46.976921
H   45.699139   92.734619   28.566170
H   59.208252   57.766552   44.203941
H   30.399000   83.748367   80.522766
H   96.401772   83.287888    7.885857
H   69.077309   67.627533   98.229156
H   20.777956   81.629547   37.730000
H    9.668488    6.235842   26.922140
H    6.627243   12.514012   96.294968
H   52.388969   89.079971   93.184456
H   93.541031    8.625320   62.447807
H   26.581148   86.953125   91.735199
H   71.261955   72.345978    5.191180
H   82.472565   93.947906    4.247676
H   97.412354   83.450783   40.010429
H   25.686489   48.917271   21.043289
H   91.091682   35.408657   61.328701
H   37.904274   11.874567   76.448654
H   98.042221   15.020893   75.019447
H   55.049999   40.260448   76.654793
H   89.197121   39.572353   70.659325
H   66.674286   50.368198   11.876732
H    3.782992   78.401901   63.765697
H   97.572762   75.235611   89.752342
H   18.195704   86.522644   82.119537
H   76.804047   18.455618   29.760567
H   21.141100   51.895622   87.487129
H   42.017429   83.456947   71.498703
H   84.262901   58.134644   49.946533
H   32.380997   25.157988   46.366096
H   54.218369   29.810690   89.358284
H   46.551945   13.929024   93.947510
H   18.330437   29.810555   33.730877
H   29.602816   52.574081   23.997549
H   89.809608   69.984016   86.174667
H    6.139429    1.233440   46.951397
H   74.500587   24.432533   25.189884
H   86.086899    8.238623   22.208794
H   85.728661   40.158520   64.127121
H   24.293829   56.664062   80.057320
H   82.529419   57.317059   47.342804
H   34.127384   56.789997   40.350529
