100
TIME:    0.032, STEP:    32
H   15.158559   19.086639   99.116714
H    0.380060    6.479724   80.019073
H   80.314240   76.206078   22.964134
H   81.481979   31.332571   38.409325
H   94.884430   75.322464   64.837669
H   27.520119    1.178824   81.914757
H   51.292461   63.499844   92.954926
H   17.371161   91.370697    5.255285
H   52.841377   83.216660   98.072151
H   73.966103   16.846855    8.941629
H   97.278473   67.530106   36.667198
H   54.620708   25.294472   90.651634
H   41.226677   59.771347   21.948608
H   53.497639    4.978603   59.676392
H   80.892311   67.162704   49.235058
H    0.234892    8.939774   30.384136
H   21.493113   84.113319   76.268242
H    1.828660   93.144348   98.436813
H   45.762589   79.696289   65.046814
H   91.783180    4.861483   18.371119
H   62.377625   53.032356   56.372482
H   65.416176   44.142174   16.530642
H   85.316780   94.361961   31.435669
H   16.068424   37.065556    4.697618
H   28.438074   83.634804   36.794510
H   46.506397   26.661812   86.170647
H   59.320255   41.147251    0.601389
H   29.840340   57.932827   67.834122
H   11.866839   51.995113   55.659454
H    2.221130   90.047653   85.932793
H   17.360537   24.911814    6.879796
H   67.777863   51.625877   96.301704
H   72.612732   66.140968    0.679765
H   79.454201   70.790100   70.403343
H   79.976418   56.501236   26.677284
H   75.337395   86.999748   20.534224
H   82.869850    3.361538   10.985512
H   62.665543   58.368557   24.699808
H   49.282673   79.824883   39.059906
H   60.178539    9.187120   40.551796
H   33.054676   57.277042   43.091663
H   28.745193   13.292620    4.303840
H   11.517463   63.691830    3.785022
H   77.316269   13.308171   83.860123
H   53.879021   30.629375   58.845551
H   77.542747   63.805637   83.443779
H   36.417957   27.466679   27.896673
H   56.241123   95.711227   70.557922
H   65.962395   29.798885   43.198105
H   26.560926   31.236454   81.426651
H   43.535748   66.555626   53.765453
H    6.688653   60.770424   71.962051
H    9.543228   22.194275    1.010913
H   75.943176    6.680251   33.227741
H   38.212303   61.310986    0.677725
H   93.606277   12.498829   91.537445
H   98.281242   88.623451   59.030922
H   23.677355   73.864464   12.730764
H   92.801277   40.121155    9.026408
H   56.912186   30.247396   62.688271
H   61.719376   77.082016   11.901370
H   97.775391   27.647507   93.906036
H   76.404182    4.971046   31.362762
H   45.236938   41.968552   26.272161
H   33.591438   58.289295   98.540962
H   99.379707   40.682362   48.077953
H   85.000938   49.467960   68.607285
H   78.155251   19.367306   67.732384
H   58.498756   47.487007   58.226727
H   31.034996   49.753845    1.663474
H   21.016836   93.226921   61.763615
H   71.327721   50.463509   58.965488
H    4.904929   16.724232   60.929188
H   29.486618   47.355282    1.306766
H   63.712856   28.689230    3.823469
H   26.414228    9.623060   93.776810
H   69.861145   23.770630   91.597839
H   33.483749   48.627583   16.207241
H   63.088440   53.405834   18.045265
H   97.956100    7.210994   18.164209
H   11.508400   29.611834   81.901306
H   43.725315   44.436539   84.104675
H   19.820660    7.791461   32.947601
H   52.371849   14.899876   60.507362
H   50.773163   46.884323   44.650169
H   50.563389   10.223346   44.007458
H   69.291924    1.026259   25.069088
H   56.470306    2.732140   95.405281
H   56.347359   92.390862   27.939262
H   63.505470    7.970504   25.355822
H   25.332155   75.158539   34.137524
H   80.654305   97.913475   34.134819
H   87.337440   28.590235   21.390276
H   50.321281   15.173223   28.976654
H   56.038425   46.863781   16.822826
H   96.564621   94.468010   65.796059
H   60.062279   69.516808   35.348518
H    6.982922   16.510132   55.523102
H    7.187569   36.988232   42.371052
H   41.228832   77.880547   94.603745
