100
TIME:    5.648, STEP:  5648
H   35.370766    4.071764   93.975113
H   44.490608   10.919717   34.229710
H   76.844299   80.243958   57.047367
H   82.424606   99.951691   30.576385
H   44.582428   25.469530   12.565130
H   40.436901   95.089195   38.086651
H   56.957241   42.718151   32.134037
H   75.964630   77.225266   89.613060
H   14.789314   43.261276   44.565781
H   20.495375   97.480278   28.859282
H   74.891830   93.502274   95.705772
H   40.273232    6.795703   90.898643
H   83.656357   20.044846   63.808037
H   75.425789   87.667152   87.055168
H   49.199471   65.525345   79.278839
H   74.429810   17.734451   64.207733
H   69.928535   55.540958   87.548065
H   21.846518   20.006104    3.737436
H   33.237667   15.292857   60.918964
H   40.349342   85.871620    0.874755
H   29.116386   93.940613    3.948303
H    3.859604   51.581787   38.298889
H   10.334281   48.687401   70.754288
H   94.277184    4.394747   87.603653
H   27.578751   38.245430   78.251625
H   20.799551   59.691757   59.304398
H   75.046173    7.695457   12.030622
H   55.979221   20.069237   53.467400
H   33.981560   61.522678   90.188751
H   17.562828   51.051811   32.387894
H   38.339638   28.522911   62.527153
H   22.375248   96.465485   76.400414
H   68.195793   55.247597    6.613400
H   16.742802   56.117210   33.809044
H   40.378006   31.974714   68.650787
H   63.608555   27.804581    1.669313
H   21.516033   97.692505   53.505596
H   30.550343   55.594769   21.005634
H    6.667151   58.356316   96.979500
H   31.215296   83.436607   82.407677
H   49.250595   49.978104   75.410133
H   24.231457   63.752251   68.298271
H   59.890369   97.369324    9.435491
H   18.700375    7.444448   32.967712
H   66.732552    9.051978   39.425396
H    5.218786   70.643784    6.106802
H   85.859665   31.996109   79.681114
H   56.541050   53.542542   18.044119
H   30.126770   64.681335   19.172493
H   44.333340   16.697523   88.635910
H   43.113773   24.365740   12.966058
H   79.614998   39.647228    3.280177
H   26.028309   54.757751   74.842918
H   45.895576   15.048917   81.047447
H   91.092430   53.569294   48.387577
H    0.630301    6.592575    0.355549
H   54.309418   26.576317   93.159157
H    5.494145   43.504005   68.075790
H   35.722313   77.410789   77.883690
H   86.309128   61.913349    2.968025
H   15.980587   15.914192   74.032707
H   98.459358   75.371292   39.800606
H   57.504177   21.873747   46.170135
H   30.877228   72.530182   73.798309
H   56.503044    9.747375   21.542833
H   54.380363   61.494255   80.137169
H   34.419342   43.627880   39.748306
H   90.219643   40.552952   36.209660
H   38.398098   43.957069    5.998984
H   44.812607   32.219719   89.840057
H   42.683769   11.110794   94.395760
H    8.264156   64.078827   70.142960
H   38.731628   38.932556   16.932274
H    5.876766   91.957237   67.568565
H   34.484280   36.692684   29.555191
H   59.183418   69.557793   15.891069
H   79.757133   37.014904   90.935890
H   97.333633   81.412010   26.357386
H   32.355030   36.928768   80.698082
H   22.541103    1.345759   34.340912
H   21.394464   87.712814   17.556864
H   65.108658   81.098938   14.485518
H   75.124138    1.573772   67.831436
H   38.723221   95.470383   47.558964
H   77.318230   95.598549    0.242247
H   21.301334   16.513779   33.997589
H   44.371880   92.697166   92.861877
H   46.864372   53.115597   37.016769
H   72.895126   79.700829   81.997444
H   66.980499   76.902512   26.120283
H   55.162102   78.406647   52.737225
H   96.193703   20.262880   41.143089
H   47.501099   96.986580   55.773090
H   93.125374   55.830761    7.635091
H   58.941200   43.816631   45.870518
H   60.423233   72.698395   75.722305
H   14.290873   91.807991   12.367661
H   27.375383   65.919724   65.495872
H   39.655273   61.196606   71.958565
H   90.030396   33.698109   53.651600
