100
TIME:    4.819, STEP:  4819
H   91.433510   80.094521   94.734085
H   67.386269   65.999924   81.959534
H   62.588898   20.601997   66.779381
H   82.285461   34.108391   76.018074
H   52.007706   59.021606   35.040863
H   53.295155   95.987312   55.988544
H    0.407330   86.739471   67.305084
H   41.122398    5.507352   65.730309
H   35.167717   22.966309   96.747475
H   43.149086   85.577065   96.395111
H   52.003387   60.145451   75.558472
H   71.914467   65.242226   49.907097
H   36.556686   70.175713   46.181885
H   16.472855   90.222359   23.967920
H   39.117790   39.574615   19.126904
H    7.761942   90.241592   33.022400
H   36.591896    0.711122   12.080931
H    4.119079   60.340092   32.474072
H   20.325954   80.516678   17.246439
H   62.682098    3.479132   44.432533
H   78.310432   76.471039   26.448666
H   24.382568   50.481277    8.895874
H   21.403435   55.429604   94.472168
H   71.304169   94.477509   49.172668
H   57.228790    3.987938   72.129250
H   24.578600   84.195023   37.261318
H   46.531418   42.157261   95.582375
H   25.928890   81.374344   26.062181
H   15.955966   86.309563   29.374794
H   85.775543   71.569359   66.485268
H    5.712209   54.183971   28.114998
H   70.031837   19.369270   53.145073
H    9.800697   15.901392   31.930532
H   81.715439   32.090057   68.734413
H   60.984100   94.640518   18.172234
H   91.545380   62.873447    4.276701
H   42.003731   28.054260   88.183762
H   64.811760   70.765068   62.503635
H   41.661701   76.419853   77.315506
H    9.297861   61.045509   17.182844
H    5.907617   21.535620   55.879253
H   98.516197   28.136705   29.200388
H   52.749706   92.398056   49.554756
H   71.633270   93.529602   51.912003
H   38.643169   41.757690   68.485374
H   15.915991   54.831867    2.737605
H   79.383102   86.911034   71.724556
H   56.496777   45.004105   66.750343
H    5.896515   33.340015   52.243477
H   26.946552    4.079611   46.616379
H   43.176960    4.399811    4.226809
H   39.326225   16.571821   57.704742
H    8.831923   49.950928   22.988588
H   65.091606   28.577484   44.464989
H   57.099152   80.916023   41.335461
H   99.595871    7.464602   28.576675
H    1.756493   50.496590   14.314564
H   67.222794   21.792624   89.428207
H   70.340126   42.384048   41.525925
H   41.014088   98.191574   26.546761
H   63.686920   54.464970   38.668442
H   27.879343   83.087509   77.310562
H    1.221776   78.443039    3.017167
H   73.952492   68.014297   96.301834
H   23.596083   75.959167   44.341831
H    5.307095    2.706345   31.120214
H    0.930640   14.968532   99.722763
H   47.484535   93.140457   96.578667
H   97.079330    3.523715   57.994598
H   28.019598   90.523926   91.585693
H   69.007454   67.515213    4.339445
H   76.618011   91.591568    9.445975
H   92.783096   79.938484   38.189819
H   24.123722   44.423977   16.824902
H   94.515144   35.509953   66.710907
H   39.582962   16.425009   71.670975
H    4.488513    8.867058   76.275078
H   58.385708   35.617649   80.575523
H   92.602165   39.363804   71.451271
H   63.192322   46.501095    5.760113
H    5.172351   79.136429   68.009270
H    2.899946   75.699295   83.815453
H   22.686831   87.710022   88.880875
H   81.688980   24.531450   23.276031
H   17.683783   47.454330   80.604454
H   40.383160   86.064629   76.429138
H   89.004829   52.972366   53.332077
H   33.523956   19.473795   45.627777
H   55.691757   25.857729   88.777596
H   40.274334   11.007706   96.485855
H   21.236046   33.644230   35.230267
H   34.856098   57.914032   25.350142
H   94.360863   72.115013   91.665207
H   13.001945    5.540169   51.738285
H   73.273125   18.072586   26.821175
H   91.951202    5.435048   18.541573
H   80.092949   44.233089   60.043884
H   24.554380   57.268585   78.920860
H   79.147125   57.623112   41.395622
H   38.537258   54.968304   33.510647
