100
TIME:    1.693, STEP:  1693
H    2.832074   66.764603   97.596024
H   54.176384   96.536293   84.794212
H    8.856001   95.705742    3.461545
H   81.760773   62.898582   47.364742
H   80.007004    8.458928   19.800278
H    1.763098   99.373940   46.409466
H   64.238487   75.657738   22.847664
H   86.819832   35.067829   52.749069
H   12.010826   23.518463   93.518349
H   28.573957   40.692329   73.987236
H   42.776291   34.363865   76.670639
H   91.222366    8.551983   72.419548
H   35.570808   59.278542   56.857841
H   71.254219   99.857552   86.077980
H    1.092442   18.801640   69.392899
H   33.453079   63.655113   92.507584
H   87.952805   93.957779   27.498735
H   37.323082   12.370173   40.853317
H   71.630745   49.378075   52.555080
H   46.904823   69.859482   31.599924
H   63.811615   87.673706   11.293758
H   24.683842   46.334503   75.099709
H   63.140038   80.853157   83.910950
H   61.743477   56.986607   81.337601
H   69.032585   51.903366   49.053413
H   38.896130   77.161713   30.487806
H   16.089130   72.102676   33.562008
H   89.691635   35.463223   22.733507
H   47.983612    2.694482   77.143547
H   65.910454   48.938309   17.977200
H   82.699562   73.864761   75.442963
H   72.654266    5.738399   42.534569
H   89.610184   44.613991   50.315765
H   49.634804   18.569252    0.428501
H   38.689659   30.942451   27.820427
H   19.754570   17.477499   14.819623
H   42.179657   42.535500   41.867008
H   94.017189   27.967411   41.911289
H   74.610550   44.367439   79.861221
H    3.732124   53.690830   71.236771
H   19.543755   14.274318   82.230881
H   79.463989   87.840324   82.340149
H   25.823637   73.652359   23.760826
H   71.249870   41.145233   46.266323
H    9.800705   65.091293    0.984252
H   56.245487   95.208168   90.045418
H   53.956593   17.067873   42.089790
H   56.329830   12.814405   73.331184
H   14.519551   92.235558   76.940750
H   61.397419   56.517941   65.252769
H   43.415455    6.195032   71.267578
H   87.410011    6.640948   62.921032
H   43.998955   31.825317    4.542339
H   37.486301   79.584251    6.524511
H    5.979603    6.921999   14.772442
H   95.684555   10.752686   34.993088
H    3.581537   40.696342   17.005972
H   99.993011   17.004536   69.947708
H   23.800362   10.301547   81.511246
H   47.297451   57.918537   15.456664
H   66.496445   99.840767   82.395958
H   38.823273   12.186367   18.750931
H   89.067871   91.703026   17.411964
H   59.295738   51.003990   81.176292
H   99.519234   25.626667   53.227558
H   97.341743   58.108986   46.288723
H   51.736221    6.895219   48.800793
H   63.418678   14.361497   47.137791
H   41.281700   28.138138   54.051559
H   64.680725   33.295708   98.168152
H   68.271904   80.208855   41.842564
H   34.371716   95.337540   80.575676
H   96.604385   34.563358   18.337170
H   92.930443   42.243423    2.588558
H   43.797653   31.052637   29.739246
H   65.685524   16.077631   82.011833
H   20.668039   79.809555   20.989588
H   11.520549   40.019653    7.937078
H   42.703392   48.542820   36.567574
H   16.497757   16.749140   75.067757
H   44.012730   46.796520   81.175514
H   68.351624   55.284134   45.210159
H   24.918797   35.514130   91.149841
H   66.634468   57.033794    8.793098
H   69.894333   42.986588   83.635147
H   12.324802   71.243187   59.350334
H   80.226357   80.258026    4.271866
H   83.209122   69.748947   78.144997
H   90.816353   99.909187   14.348473
H   16.654228   39.621315   84.738091
H   93.307045   64.847046   69.214798
H    3.551875   22.835466   65.778572
H   93.910652   78.358932   49.890366
H   10.862127   15.925179   40.968819
H   27.321678   98.080231   54.989647
H   33.756470   28.875845   80.003189
H   28.219711   64.838280   39.823349
H   13.081262   30.652557   28.948299
H   28.061558   44.148151    3.237086
H   44.382401   35.216618   34.626045
