100
TIME:    1.710, STEP:  1710
H    1.682463   65.205612   97.580460
H   53.703499   97.457939   85.866570
H    9.148214   96.928810    3.261970
H   81.763626   62.198204   46.432850
H   79.854736    9.821553   19.339390
H    1.499471   99.355522   48.093098
H   63.347546   76.805580   24.177086
H   85.483665   36.538494   51.188133
H   11.592934   21.883987   92.448326
H   28.109438   40.936424   74.652855
H   41.194992   35.047901   75.033051
H   90.573608    9.404078   71.209450
H   34.489502   58.250023   55.168243
H   70.412468   99.805153   87.371605
H    1.299240   17.283180   68.575790
H   32.769562   62.168106   91.096451
H   86.586029   95.082016   29.046507
H   37.686371   11.543434   40.263962
H   71.895592   50.091293   53.450657
H   46.446854   69.498398   32.757362
H   62.802811   85.981384   10.832352
H   26.313908   46.356941   73.652260
H   62.913063   80.714897   83.424576
H   60.163994   57.190495   80.075104
H   68.424553   50.555138   49.178833
H   38.818180   76.655106   28.894381
H   14.623199   71.396072   33.899357
H   88.257156   36.256725   23.295431
H   48.353256    4.236831   76.339928
H   66.562325   48.517563   19.328606
H   83.368294   75.389252   74.097717
H   73.727661    5.268740   40.960793
H   90.807571   43.370171   51.847260
H   50.353081   17.011299   99.712326
H   38.267097   29.657387   28.855560
H   21.232693   18.812952   14.761193
H   43.810112   41.912941   43.206547
H   93.314476   27.656261   43.110882
H   73.846359   44.004539   78.231934
H    2.130924   52.099285   72.574234
H   18.382034   14.857642   82.631393
H   77.936127   88.603218   83.138840
H   25.970068   73.754303   24.988758
H   70.164284   41.430183   47.928425
H    8.326084   64.420486    2.439031
H   56.026165   95.532417   90.114418
H   54.136097   17.984980   42.235054
H   56.330738   12.989435   74.383049
H   15.016431   90.827538   76.262680
H   61.753963   56.776691   64.063683
H   43.414158    4.553747   71.446823
H   88.236198    5.063459   61.804966
H   44.351608   31.923889    3.554996
H   37.092663   79.306953    7.274630
H    4.626219    8.412325   14.916700
H   95.705826   10.734819   34.414368
H    4.659245   40.205818   18.622808
H   98.727142   15.399060   69.509842
H   25.141068   11.019856   80.206207
H   46.175678   59.225262   14.973176
H   67.568802   99.050117   81.070427
H   38.219910   12.028101   17.981682
H   90.220901   90.543770   16.245705
H   60.463165   51.096466   80.714821
H    0.193949   24.268906   54.810802
H   96.297401   57.263863   47.293896
H   50.372299    7.482937   49.621532
H   62.244377   15.333791   47.950489
H   42.129028   26.916626   52.985298
H   65.025208   34.150818   98.132355
H   67.732094   79.052193   41.638676
H   32.970051   94.773346   81.820274
H   95.495972   33.722515   17.901249
H   92.556389   41.167564    1.578189
H   44.617226   31.076826   31.028008
H   66.087334   17.167173   80.867882
H   22.211531   78.336166   21.290297
H   12.319240   38.907997    8.875943
H   43.518295   48.493015   36.757195
H   15.664034   15.823278   73.603188
H   44.345409   46.972393   82.191582
H   69.627090   55.395157   43.788651
H   25.994396   35.797913   92.769012
H   67.803841   58.488506    7.240334
H   69.066589   41.923180   81.987183
H   11.933498   71.867561   60.530861
H   81.361748   79.021988    5.082505
H   83.482788   68.387878   77.968086
H   91.169136   98.962639   14.209402
H   15.151184   38.921844   85.345863
H   94.002754   65.765060   69.573807
H    4.809722   24.113981   66.102562
H   95.001427   78.868393   51.205521
H   12.505260   16.956358   42.114975
H   27.027714   96.557556   55.380302
H   35.160599   28.204584   79.125122
H   26.870380   65.813881   38.845673
H   13.143680   30.797302   28.676254
H   27.251778   44.221432    1.813097
H   45.438156   34.779919   32.988716
