100
TIME:    6.047, STEP:  6047
H    8.388729   67.481468   93.609818
H   33.470863   32.541981   59.389431
H   83.705765    8.949637   52.362453
H   82.491577   83.513397    8.705590
H   41.008621   57.451141    1.747096
H   34.248188   94.656929   77.601433
H   36.047123   69.661095   63.336353
H   44.604019   11.744843   52.979099
H    4.981133    4.898950   19.449438
H    9.595510    3.209573   44.482243
H   37.777817    9.556707   57.271141
H   25.043457   26.795277   62.496925
H   58.195267   95.915810   24.161308
H   55.669395   86.437325   17.419025
H   54.051811   29.884781   60.100208
H   58.387253   82.836220   31.087574
H   37.843422   81.932579   23.870611
H   30.379210    0.592184   89.905312
H   39.450733   32.032516   81.941269
H   29.600525   77.396767   28.040461
H    5.439156   54.220074   93.117867
H   42.112122   52.111465    4.320369
H    5.006509   45.442360   59.338806
H   57.205227    9.167940   57.971485
H   13.309255    6.601715   81.198341
H   18.980684   47.895760   21.785099
H   40.639366   91.110123   19.948019
H   22.313766   38.693214   66.656998
H   42.657326   97.723450   71.327332
H   32.861179   41.176659   64.107712
H   54.044296   64.300728   30.959541
H   47.568455   85.439651   39.462959
H   96.299187   26.054716   42.558472
H   33.602562   19.551140   17.000727
H   30.459999    1.812318   92.948822
H   98.293350   59.055809    0.414489
H   59.784187   83.080688   84.945351
H   14.059755   48.291904   49.160778
H   89.826019   49.662285   58.312981
H   93.633774   46.083691   13.799402
H   21.981853   63.667549   84.810402
H   90.605667   65.316452   88.669579
H   63.327190   99.762009   38.255272
H   93.222870   14.141562   71.978844
H   32.123615   93.309097   73.568344
H    0.069912   78.254105    7.727801
H   88.976852   53.694656   83.510628
H   56.562359   57.652115   42.731998
H   41.788826   31.637260    3.255667
H   52.701649   22.770559   60.727699
H   43.086376   85.844437   17.172070
H   99.006096    2.622648   77.088142
H   34.305294   57.071289   51.669392
H   36.656647    8.538287   98.654686
H   59.323906   88.535065   51.781780
H    1.127290    6.172866   86.772644
H   79.604958   15.063361   31.107567
H   75.783600    5.822748   57.798813
H   67.189774   94.269173   47.253670
H   59.977882   92.580109   91.619530
H   41.150410   97.359146   42.923779
H   84.298073   71.657455   21.745880
H   84.591560   94.646278   18.809509
H   58.277367   74.703690   62.967007
H   72.340042   77.880875   58.699894
H   29.869175   41.658714    3.729278
H    2.405937   57.420826   59.011551
H   62.658104   63.371738   55.284168
H   58.285389   15.287468   80.975677
H   52.894768   52.289658   88.999878
H   30.013866   83.962952   89.610390
H   75.363724   50.836868   99.354416
H   12.715378   19.197472    6.700958
H   97.093361   66.703148   43.860893
H   53.720127   37.261936   59.801773
H   68.615685   95.128471   89.043121
H   15.983001    2.431855   97.992180
H   16.079388   55.322815   48.393829
H   51.487377   35.756779   85.148598
H    2.974895   79.610725   99.966820
H   29.202654   91.840652   41.403645
H   95.056793   83.686447   81.109276
H    0.359997    8.246037    5.828611
H   66.172371   29.614296   11.117600
H   57.890602   70.642784   61.563553
H   12.117199   31.169735   61.705246
H   71.020180   63.686623   11.887808
H   53.281395   21.186251   32.879799
H   81.175156   57.484779   78.734138
H   31.702364   60.487919   40.382652
H   71.490807   99.952988   61.163372
H   25.715662   50.271301   48.744278
H   73.077866    8.958318   86.628372
H   31.686905   80.037666   34.538864
H   52.043205    8.075520   55.039433
H   93.378967   56.941986   55.113556
H   82.620110   14.705438   89.420609
H   26.605219   85.663940   57.486206
H   20.647736   62.916538   38.537804
H   14.814297   23.459435   15.213407
