100
TIME:    7.934, STEP:  7934
H   80.778313   94.435692   91.882217
H   81.359146   34.796017   78.369949
H   16.149126   44.707321   30.206566
H   82.808304    5.768963    5.272413
H   24.103571    8.702336   50.581482
H    4.981118   92.612602   64.477608
H   37.149281   97.078491   10.902302
H   96.289536   74.993187   79.720543
H   58.595009   23.471416    0.669405
H   58.054115   30.305483   18.367577
H   62.253677   85.484421   75.505920
H   53.024155   21.380779   28.177856
H   37.824959   81.751175   36.647938
H   62.236900   80.621071   61.022152
H   76.972359   61.328842   69.354034
H   82.513916   17.792480   74.449493
H   86.101875    6.744079   95.651672
H   70.730667    8.770578   24.494724
H   68.836700   11.193067   81.355499
H   78.759872   37.326031   56.516212
H   93.461922   66.363403   41.900738
H   23.020647   54.616486   43.624878
H   79.811867   30.096407    5.348460
H   81.875244   31.741915   17.825680
H   45.818428   56.955269   95.134315
H   10.197903   92.209152   44.257927
H   77.921768   12.669278   57.393749
H   63.092789   26.771994   29.027632
H   83.687828   68.926559   82.128014
H    5.218520   94.472641   14.118931
H   28.307718   33.513039   81.666252
H   66.714897   33.303402   64.773949
H   29.216860   87.993507   12.554334
H   13.331916   46.618904   37.503723
H   83.500252   58.954887    7.762093
H   62.326710    6.853597   94.482857
H   40.772808   13.974806   33.633389
H   36.065681   13.754534   82.321541
H   10.174188    8.549509   75.448906
H   15.899677   69.429565   62.266312
H   93.019302   28.417547   29.266081
H   31.579735   72.716339   85.004784
H   79.567230   11.081554   74.553871
H   72.730026   45.814232   56.479130
H   68.439156   18.858265   35.044220
H   75.710777   14.243247   15.394026
H    3.721305   56.316231    1.622676
H   56.671871   77.087616   59.488506
H   96.951057   75.355721   27.982952
H   92.316162   51.493992   28.786743
H   42.956806    3.666681   37.062897
H   90.720596   27.522161   53.219208
H   73.446358   68.012756   42.077248
H   92.960449   77.755203   81.922256
H    9.077744   53.903358   67.830627
H    3.477546    4.187925   22.534714
H   99.234039   60.614235   10.576924
H   35.273361   27.619215    9.192790
H   16.011848   74.008751    2.392609
H   35.456482   37.622059   37.948753
H   60.183514    9.604412   95.799538
H   17.324776   54.093521   36.365852
H   12.699389   65.881134   89.412262
H   87.853447   84.982910   11.729568
H   47.237701   27.168585   34.428238
H   13.950157   47.850639   15.304334
H   51.009033   22.661900   50.116070
H   32.310234   71.291191   45.493683
H   52.332809   79.699699   62.627579
H   91.160164   47.147717   85.015717
H   70.092094   55.573029   66.978828
H   19.922066   88.159569   37.605213
H   89.679123   25.864489   58.324413
H   55.547512   47.276310   31.741594
H   44.659454   39.997593    2.862984
H   13.220006   16.067379   62.070541
H   87.359093   39.092964   31.451471
H    4.733592   31.937893   52.605885
H   41.976685   30.214062    6.199743
H   10.434735   76.816704   37.399940
H   66.136269   11.363229   54.187256
H   36.657547   95.923752   23.246094
H   19.717409   39.802647   85.537094
H   95.996193   91.088501   38.768673
H   66.010361   52.600475   78.640739
H   68.693161    0.482076   92.744125
H   97.048698   26.486046    1.867002
H   83.629570   70.188416   13.314728
H   20.337460   52.419579   63.300911
H   64.867615   82.849869    7.839338
H   48.714680    1.845508    1.013389
H   65.334557   92.192337   84.701042
H   94.038300   65.580009   32.552979
H   14.056688   94.519493   61.776211
H   19.417580   39.050529   98.402191
H   49.237473   82.427307   57.647530
H   32.838341   22.995068   80.896935
H   22.962862   79.033195   19.606218
H   30.755424   71.063133   80.481880
H   32.022495   75.032822   33.432880
