100
TIME:    7.366, STEP:  7366
H   19.189764   46.523232   92.402237
H   97.046402    4.015546   42.555340
H    6.385670    3.843942   36.875233
H   82.712967   29.172009   36.407047
H   29.193262   63.174725   65.982727
H   13.790032   93.227959    8.225449
H   66.916489   58.726452   66.483948
H   40.933220   25.854702   31.872154
H   72.557533   78.082474   36.423267
H   73.568031   22.149843   96.126442
H   15.087646   62.629566   30.219427
H   74.702499   92.910309   68.609169
H   74.044319   16.131596   93.093956
H   90.361290   82.371803   17.795528
H   70.073433   12.065392   96.672394
H    5.351873   67.471680   21.598642
H   31.777290   69.173340   43.944393
H   58.586277   36.409332   44.182625
H   59.989666   87.365646   51.430195
H   94.065781   49.386150   17.844095
H   27.167831   22.908562   57.314983
H   68.565933   53.862457   91.995361
H   87.395485   34.715019   21.600527
H   34.650108   24.946993   60.011536
H   66.133858    1.998505   90.939491
H   12.876003    8.952606   97.708870
H   26.900148   36.280876   46.122326
H   11.020419    0.259696   10.252429
H   71.337364   17.393244    8.977781
H   83.438675    8.531155   68.964500
H    5.952892   82.578888   26.604530
H   30.850887   48.994991   17.356514
H   89.208015   29.550291   61.384407
H   89.332405   98.672859   61.433289
H   97.636116    1.960490   73.205978
H   12.951624   62.365570   96.268257
H   86.294144   34.777466   88.877411
H   59.540230   24.150356   42.239052
H   34.151157   20.923807   30.491837
H   69.397774   22.602812   17.575666
H   31.837091    8.929814   15.884254
H   79.447533   70.488922   56.006222
H   74.679047    7.674343   33.527546
H    9.000488   36.280540    0.944403
H   17.710224   41.266773   86.438301
H   83.043053    3.411459   13.086439
H   99.281540   25.426609   96.170097
H   56.637203   71.237396   24.343853
H   80.345100   22.398159   50.642418
H   80.390381   42.848667   68.502571
H   42.995808   58.503860   31.074341
H   63.116222   80.228958   90.504608
H   61.667057   64.719299   75.063820
H    6.114922   87.020218   56.857315
H   54.303207    4.125444   63.002216
H    2.770103    4.785406   41.870773
H   63.222782   77.003517   56.555367
H   77.568283   81.259407   23.824335
H   71.215630   50.007320   45.997719
H   72.937920   93.962769   54.104027
H   24.353704   36.018646   40.084328
H   37.484200   59.380386   62.067818
H   74.139137    4.640061   28.361725
H   48.850300   81.888794   27.152180
H   24.691223   72.534912   81.532280
H   48.842346   76.087700   81.719254
H   96.580078    3.025240   22.692972
H   71.545708   38.807304   18.339996
H   24.022079   20.512543   98.249084
H   79.624397   18.620310   86.220428
H   88.128105   94.219147   73.791084
H   66.694298    7.019334   95.971565
H   26.714548   53.959019   72.886780
H   68.051048   83.224976   65.490845
H   17.298925   39.161228   59.796757
H   99.791389   79.664940    0.291734
H   35.773151   88.254341   21.378260
H   78.048401   69.076759   21.235704
H   14.740609   31.882458   99.860954
H   38.288986    7.758269   86.333778
H   55.016518    5.487008   20.238647
H   94.035683   92.240280   70.763893
H   83.791252   30.303625   31.443787
H   56.917507   42.484005   90.647179
H   93.666733   88.133751   33.701195
H   81.762985   79.620575   53.300644
H   59.113270   67.784264   74.782631
H   74.494560   15.638868   19.203949
H    8.548184   84.045433   67.946419
H   15.085126    6.217236   87.533630
H   25.469807   71.173225   89.018234
H   23.308306   49.472733   73.875969
H   57.628269   48.536770   88.628670
H   59.160973   60.059532   23.476831
H   29.239449   89.927902   85.349701
H    2.322978    4.857171   86.985298
H   77.924034   90.399506   13.563279
H   24.059237   50.928158   31.009813
H   57.813774   68.610374   28.057537
H   96.742638   89.610703   88.150024
