100
TIME:    2.900, STEP:  2900
H   21.207062   56.076530   96.490982
H   20.601540   61.979774   60.931110
H   29.603155   82.541916   89.296944
H   81.963364   13.169970   81.204773
H   69.196014    5.205289   87.074295
H   83.050545   98.066307   65.943474
H    0.982201   57.160660   17.236717
H   91.952011   39.488506   41.925938
H   82.340401    7.470213   17.541988
H   95.592461   58.023064   21.250154
H   30.504089   82.930435   60.405956
H   45.156784   69.052719   86.504204
H   58.792183   86.253235   36.892639
H   11.490066   96.137245   77.931740
H   15.775253   10.987760   11.371320
H   84.921295   58.084503   92.315773
H   90.906319   73.782318   37.386791
H   63.116592   53.673683   99.005554
H   90.434868    0.010056   16.146334
H   14.388977   44.229626   13.778070
H   92.186615   67.514008   78.530884
H   40.406174   47.933777   72.316498
H   47.024849   71.036705   49.378403
H   49.600098   71.462646   91.694069
H   25.862953   56.175682   57.958206
H   33.361713   41.198452   17.354681
H   12.008194   21.926992   57.513783
H   87.848351   91.801918   62.632793
H   74.228348   12.202857   20.087534
H   12.192624   19.065353   13.930370
H   30.187750   82.103912   79.940178
H   48.864906   72.385948   30.796516
H   74.630341   56.304329   59.051857
H    0.632499    7.955078   49.578201
H    8.684766   39.702454    1.319417
H   24.698284   12.294546   10.671113
H   57.946014   98.330551   36.973873
H   44.128235    5.875901   27.086582
H   22.662201   18.230806   63.280655
H   90.045853   40.695038   66.201332
H   37.056866   55.687717   10.668872
H   70.985680   42.012405   39.045120
H   36.220234   80.890381   10.944022
H   94.175018   61.376701   64.279625
H    5.102472   17.473003    4.271404
H   40.673611   18.229847   94.944435
H   64.390915   82.549225   53.297920
H   56.394291   25.241518   48.013481
H   49.798004   92.271965   28.791346
H   86.703819   74.883797   80.834503
H   43.323368   89.666931   83.993973
H   46.066792   94.640625   83.682335
H   69.035500   38.823914   34.441666
H    9.537960   59.894173   59.785309
H    9.890190   12.732429   25.014093
H   97.194778    9.484190   93.903961
H   80.098763    5.868447   31.801674
H   10.116454    3.018099   38.859207
H   18.993988   61.300915   88.848747
H   67.647476   50.692402   81.127693
H   42.635262   43.707989   88.289139
H   95.987938    0.949477   64.140808
H   70.942375    9.392046   34.608780
H   42.177376   57.569778   48.407429
H   47.428967   29.225510   65.633507
H   23.193459   98.105354   17.655361
H   54.896248   48.622044    7.073775
H   80.042854   83.390930    4.839370
H    1.436450   41.410820   78.350105
H   89.138977   94.003975   95.626556
H   29.945133   98.083290   27.361824
H   34.849075   55.279785   68.947235
H   17.906187   74.859612   87.390617
H   66.372612   65.863113   30.852928
H    1.993113   32.772121   21.237774
H   94.214012   93.435295    0.797028
H   30.255823   75.194717   42.337681
H   68.227600   61.098042   74.596970
H    0.579637   45.000515   50.036865
H   57.303902   51.014568   71.083633
H   67.631577   59.283489   53.314747
H   58.915359   63.166763   44.281593
H    1.281995   55.662720    6.110584
H   49.665089   60.318329   98.547302
H   11.123097   67.489044   66.629967
H   84.547668   15.575428   43.168087
H   60.839165   92.499290   61.826508
H    2.638811   73.113434   65.584358
H   15.865807   32.704247    4.474055
H    9.939165   89.960770   27.886295
H   42.702576   30.023849   94.704422
H   92.861710   13.602915   88.781853
H   71.350250   14.530560   43.265892
H   27.523678   89.139214   22.351147
H    6.450293   89.964966   82.726189
H   33.449722   81.213753   17.660431
H   32.413589   34.105465   70.407890
H   17.512152   40.929443    9.633854
H   70.564171   49.351055    2.131624
H   19.341646    4.216189   18.373064
