100
TIME:    0.451, STEP:   451
H   86.823402   80.662361   98.733109
H   88.724815   29.197216    6.449353
H   87.513245    6.350924   18.044388
H   81.552307   14.068705   15.442052
H   91.131485    8.907159   53.476540
H   21.022793    0.722792   23.409338
H   29.334023   91.790840   25.721560
H   84.438583   27.619312   66.785667
H   42.541557   42.931641   71.699242
H   62.515465   22.861477   25.350374
H   58.304108   84.389587   96.307106
H   38.627537   46.296898   60.826271
H   14.574651   34.421387   80.302879
H   32.750950    3.686730   91.560875
H   85.987877   29.738382   29.092779
H   83.390060   72.290230   95.603012
H   87.806831   11.822342   14.417537
H   10.782090   72.768478   83.910934
H   52.287086   97.271835   87.123337
H   80.441231   96.076019   46.956154
H   37.513565   11.318405   45.001762
H    5.592616   44.695206   80.854073
H   79.722527   90.954262   19.446384
H   77.138733   42.090794   73.580383
H   13.453466   50.406826   39.888931
H   44.591030   14.171298   46.900909
H   23.188162   23.729103    8.915693
H   94.487267   77.490341   81.682297
H   20.977844   90.010460   35.852600
H   18.286913   79.677505   19.241726
H   33.842808   62.486015   73.723534
H   94.233887   40.050568   57.512749
H    2.124987   35.484459   38.426598
H   97.157616   32.391144   52.751076
H   69.561516   24.828171   52.190277
H   11.767667   19.914099   19.092505
H   23.056114   88.018898   44.002270
H   45.348930   50.699635   54.266239
H   30.444557   70.880470   98.899902
H   20.714619   69.962852   73.518608
H    4.421688   71.654381   52.966320
H   91.087852   32.098785   23.988745
H   15.125756   66.204453   34.049561
H   50.559753   20.329760   24.828289
H   17.534916   14.097650   94.700378
H   72.191444   71.682426   85.086891
H   40.842213   50.070660   31.476995
H   56.263500    0.026787   96.483292
H   78.212212   95.098007   26.483004
H   35.348698   37.613903   52.120453
H   43.510212   26.102678   58.172153
H   27.050138   21.889179   44.455231
H   18.234507   24.623779   76.677437
H   66.244339   99.843315   51.717548
H    4.854836   98.041489    4.233086
H   94.130539   12.057964   77.273697
H   24.843445   76.533470   98.881187
H   92.476501   34.295509    1.937851
H   25.846458   57.824570   76.860596
H   29.257378   62.454361   50.782066
H   88.149826   57.595886   79.231812
H   82.904266   23.747513   74.949509
H    4.823390   76.398582    2.617582
H   74.009468   44.247810   14.895048
H   50.223953   24.823215   37.561852
H   73.639748   19.852558   72.852501
H   51.384270   63.952282   88.836105
H   49.212181   43.330734   87.763008
H   79.380547   17.380333   31.946522
H   39.522461   70.828758    0.782379
H    7.710514   64.718605   56.738377
H   36.780132   36.557793   89.641701
H   77.585571   95.999306   50.185024
H   20.264091   20.839193   76.404335
H   83.916061   29.285418   35.587208
H   36.320850   36.477341   65.581772
H    7.902479   87.454948   99.014221
H   53.169128   21.230598   39.347576
H   83.170357   52.181492   22.717266
H   77.407608   84.392296   82.067169
H   19.707539   33.947460    6.944130
H   75.162621   47.172928   49.067299
H   46.331760   14.785077   72.855408
H   81.194733   50.754246   22.236275
H   30.370173   20.673073    4.033130
H   40.913013   25.619823   73.102028
H   97.275978   70.561546   45.048565
H   63.215378   69.185875   91.051353
H   65.042427   69.061226   24.510784
H   26.461681   90.728760   40.334927
H   42.479343   97.784897   42.986034
H   11.656277   29.425219   42.117020
H   14.221004   41.144173   53.805504
H   90.818367   40.589256   57.226208
H   48.794666    9.331135   26.449738
H   31.172363   77.921806   44.154289
H   26.803892   93.562508   11.251513
H    8.521077   20.077667   48.819588
H   87.227562   38.794376    7.274295
H   67.250107   67.120399   54.248398
