100
TIME:    0.730, STEP:   730
H   67.955482   55.076576   98.477676
H   80.963936   44.324986   24.048338
H   92.306854   26.422825   14.768471
H   81.599136    2.573195    0.148690
H   88.632507   31.270241   45.911491
H   16.696411    0.419138   51.040379
H   14.711645   10.629965   47.539722
H   62.509735   51.755520   41.168182
H   35.683205   16.107010   54.137085
H   54.890816   26.866440   36.276482
H   32.352203   95.615829   69.431389
H   27.978146   60.281807   40.966423
H   96.827576   17.541580   52.572342
H   18.936329    2.826509   12.792805
H   89.380867    4.817990   15.681515
H   72.172333   47.886539   72.443832
H   65.375633   30.273056   39.819557
H   16.743835   59.200775   74.238571
H   56.631561    8.976336    1.823213
H   72.888954   90.226624   65.990105
H   20.957306   83.543610   37.430328
H   32.345081   45.063454   57.098263
H   75.997475   88.685173   11.463369
H   51.216629   45.436954   52.859436
H    3.475580   28.280018   41.948761
H   43.311741    5.858510   20.750586
H   99.129669   12.131242   14.452185
H   70.944939   90.513123   90.903397
H   27.044357   15.323443   22.664543
H   28.984198   72.772324   41.421139
H   44.817875   87.505592   51.645683
H   11.849741   32.342903   31.684303
H   21.777672   15.072058   63.561119
H    8.946208    6.822579   40.996941
H   62.626534    3.737681   69.179291
H   36.026093   41.830761   18.132505
H   49.815113   77.801613   65.986458
H   33.818298   45.593121   73.954750
H   17.901775   64.924644   72.160416
H   94.435768   43.843273   95.468742
H   85.354172   81.228828   59.541569
H   66.012932   44.621346   37.096668
H   17.528753   67.877533   54.201027
H   32.743362   25.005232   52.108162
H   93.333519    3.090110   18.575602
H   68.628166   76.927299   86.180992
H   43.788197   65.121841   33.861031
H   56.278400    2.899433   13.746154
H   86.369011   71.989914   15.353581
H   41.200222   41.860462   32.607567
H   43.488926   99.166344   61.113880
H   40.608940   96.000153   26.138618
H   24.022173   26.241516   60.474060
H   59.784771   95.292366   64.029373
H   82.644638   22.500174    6.600622
H   94.479630   11.764750   67.775879
H   42.529991   68.483101   25.416634
H   71.701355    7.947686   94.751541
H   47.849808   69.612762   55.441761
H   10.846957   83.898041   42.846642
H    5.749281   44.622063   57.478149
H   73.002014   21.150620   62.326622
H   23.748032   57.373146   83.477150
H   93.166878   45.765503    7.319357
H   61.299065    2.539698   63.545685
H   56.500252    5.982633   89.349159
H   28.999758   73.599091    2.306049
H   29.939827   59.286728    1.100822
H   93.284569   97.333191   14.447340
H   45.173897   84.860497    0.195684
H   98.850563   45.733692   53.392216
H   13.775547   27.298378   10.068357
H   59.394547   82.197456   43.030796
H   14.123240    3.183197   59.822533
H   97.368820   29.682402   56.736988
H   42.917385   54.359718   46.809460
H   33.233952   63.274040    3.951219
H   66.277054    2.987357   54.756519
H   96.542229   51.364109   25.828217
H   63.724960   69.198341   58.031006
H   25.167400   36.833843   23.618816
H   96.095284   48.995010   25.735989
H   63.984249   19.441530   99.428864
H    0.386232   74.628639   96.752663
H   16.784376    3.221057   76.987190
H   34.491024   35.868374   92.476555
H   15.909781   50.275978   58.352322
H   67.706726   46.848335   88.152199
H   70.832222   53.526695   22.227859
H    1.794399   79.247086   50.309551
H   53.897160   12.850100   48.878002
H   32.299564   50.408836   47.432137
H   32.121483   49.503189   75.389519
H   17.784632   57.513763   76.038017
H   43.971256   84.340637   32.860161
H   54.216599   66.904167   29.743660
H    4.658718    9.573560   95.205841
H    9.545466   22.453186   44.355911
H   73.936577   39.997036   83.902840
H   84.576920   59.954327   27.376753
