100
TIME:    3.318, STEP:  3318
H   92.939850   17.743706   96.108292
H    8.973646   84.641708   87.298477
H   36.788170   12.614360   84.392128
H   82.033524   95.947685   58.293575
H   65.452026   38.709835   75.740280
H   76.570320   97.613457    7.338242
H   79.073265   85.384850   49.924858
H   59.098038   75.650589    3.545536
H   72.065163   67.281204   91.230476
H   84.169151   64.024925   37.619736
H   91.622757   99.749680   20.143263
H   29.201782   90.005020   56.750023
H   32.204765   60.963776   95.347069
H   90.793327   94.848854    9.740643
H   20.860252   73.650253   91.278847
H   68.114807   21.524811   57.618507
H   57.293343    1.431576   75.438980
H   72.046349   33.346443   84.514343
H   96.946983   17.546671   38.166981
H    3.128311   35.354397   42.237480
H   67.381897   25.899879   67.184113
H   80.480240   48.488678   36.719910
H   41.443947   67.637138   37.419327
H   10.763397   76.475891   60.651150
H   10.913836   23.025124   61.043983
H   31.444609   28.744650   78.174538
H   75.964584    4.550806   65.807899
H   52.578083   11.312714   76.448235
H   83.317245   50.126724    0.329420
H   28.219570    8.719394   47.159790
H   46.640072   19.587275   46.869347
H   75.257790   60.835953   92.100197
H    4.072315   25.721313   96.708595
H   18.294571   69.647865   31.968067
H   98.293808    8.104781   26.771523
H   61.042080   45.131618    9.233830
H   98.038734   83.022934   69.910759
H   26.852951   98.226295   56.582447
H    5.017412    9.124369   22.773237
H   50.674465    1.562701   99.087196
H    8.490339   70.030380   20.516340
H   33.418236   60.773804   58.683517
H   39.820713   83.397003   41.136135
H   67.482361   68.381134    5.150764
H   68.842781    0.981539   40.041439
H   35.280865   26.202564   96.641029
H   67.656540    5.281341   57.312981
H   56.416615   29.545191   73.876976
H   62.015396   57.651825   12.117019
H   95.467430   81.242836   51.598309
H   43.291477   49.312225   88.401291
H   66.381271   55.854279   56.242527
H   77.703438   41.247620   10.164581
H   99.859032   53.072716   78.230988
H   76.609024   49.365471   28.568331
H   97.717789    9.044455   79.674255
H    6.599473   93.806999   71.556831
H   78.991203   63.543488   28.092270
H   51.959579   78.962082   56.759434
H   40.064644   82.820587   69.238777
H   69.002632   24.270447   55.697483
H   81.152306   97.058609   45.226357
H   99.318871   80.868584    5.945267
H   70.881584   59.843597   37.057468
H   64.021782   95.840462    4.559686
H   97.515327   77.325264   42.369858
H   21.359303   63.071796   27.255892
H   51.168861    7.296722   24.822187
H   22.270302   11.375999   52.134365
H   97.609192   15.028000   94.746368
H   16.670559   69.643013   22.346985
H    0.383444   41.407257   99.549713
H   90.651291   54.183086   76.675285
H   57.172604   39.409859    6.010546
H   22.146112   33.368481   52.925083
H    4.094883   20.224943   72.669342
H   68.208717   38.964485   49.729984
H   87.865997   33.764378   97.679581
H   20.623549   43.772717   54.702499
H   36.804451   28.247940   35.072464
H   75.808395   63.607891   78.298050
H   90.277359   65.896622    9.328165
H   27.728666   62.640442   45.922947
H   78.422684   96.087128   60.367859
H   90.769791   41.342144   26.109428
H   74.929382   30.929287   72.195160
H   88.756432   62.107292   81.758301
H    9.366190   39.647156   61.236473
H   24.541706    9.431612    1.054186
H   72.983398   72.765213   42.827606
H   59.808838   52.593159    3.531889
H   23.791109   45.037682   96.748192
H   98.144958   27.073332   75.590477
H   67.925911   14.493458   50.533653
H   99.222725   52.524105   92.331718
H   67.974777   64.707039   96.069725
H   99.235504   58.093777   46.368553
H   19.046103   44.488464    2.945541
H   50.651512   51.152889   67.120506
H   45.304005   93.489204   78.106613
