100
TIME:    0.016, STEP:    16
H   16.240553   20.553925   99.131363
H    0.825147    5.612216   79.009796
H   80.039337   75.054955   23.152000
H   81.479294   31.991812   39.286400
H   95.027740   74.039993   65.271507
H   27.768227    1.196238   80.330284
H   52.130962   62.419399   91.703705
H   18.628729   89.986420    6.724371
H   53.234688   84.754990   99.079231
H   74.403358   16.617180    8.315042
H   98.766754   66.886307   38.208336
H   55.231426   24.492470   91.790550
H   42.244377   60.739365   23.538879
H   54.289875    5.027935   58.458740
H   80.697731   68.591904   50.004223
H    0.877960   10.339493   31.712383
H   22.779428   83.055214   74.811455
H    1.486764   93.922424   98.991501
H   45.513443   79.025146   64.203796
H   92.216286    5.196993   17.279566
H   63.327087   54.625252   56.806686
H   63.881992   44.121056   17.893068
H   85.530403   94.492088   31.893494
H   17.554996   36.873661    5.885957
H   29.010279   84.903603   36.676346
H   46.579395   27.138924   87.670158
H   60.700016   41.812412    0.283900
H   31.190315   57.186001   67.305313
H   11.518909   50.543453   56.415802
H    1.607635   90.443649   84.660820
H   16.731142   23.476999    8.145895
H   66.767609   52.067894   97.782906
H   71.485779   67.311623   99.238358
H   78.778175   72.256409   71.077415
H   80.374123   57.710709   25.703041
H   73.946281   85.742912   20.589277
H   81.335426    3.947278    9.724617
H   63.326797   58.661404   23.570780
H   50.002033   80.166435   40.593475
H   61.685497   10.685015   39.292885
H   34.148060   56.728092   42.714588
H   30.183182   12.574511    3.552161
H   11.379676   63.595882    2.629337
H   78.337997   13.040044   82.295670
H   55.266838   31.260662   57.476288
H   77.747093   63.504734   83.381035
H   36.249012   26.603519   27.759954
H   56.240269   95.546432   69.567932
H   65.494621   31.123959   43.836411
H   26.225355   30.992924   82.545792
H   43.536480   68.100304   53.597607
H    5.911126   62.255165   73.012344
H    9.211349   22.101501    1.940178
H   76.313538    6.941314   32.521687
H   39.486107   59.908276    0.541959
H   93.586258   12.515675   92.082123
H   97.266838   89.085121   57.509193
H   24.868822   75.375450   13.142904
H   91.539314   39.445129   10.254741
H   57.968460   29.017538   63.142494
H   60.710098   77.826157   13.148837
H   98.343262   27.796432   94.629913
H   75.318977    6.062174   32.460419
H   44.138184   41.881516   26.706610
H   32.956306   59.567249   97.050972
H    0.362606   41.477772   47.131908
H   86.284630   48.914860   67.834824
H   79.260475   18.452206   66.967491
H   57.701271   48.636665   59.230267
H   30.710835   48.949036    1.697122
H   21.524954   94.315544   61.955509
H   72.647057   50.994514   57.793980
H    5.948187   17.515614   61.339466
H   29.838791   48.367855    2.257700
H   62.941494   28.666464    2.610532
H   26.035933    8.597609   94.853470
H   68.408508   25.157410   91.314636
H   32.732040   49.673725   15.323612
H   62.321472   53.452587   17.866859
H   98.740768    8.082393   19.542627
H   11.195320   29.446245   80.945007
H   42.524876   44.332047   85.442566
H   18.808270    7.524402   31.423677
H   51.271141   13.530735   61.968788
H   51.552338   47.885300   46.201195
H   50.932041    9.635272   42.896496
H   68.223320    2.189596   24.306149
H   56.212738    4.013115   95.571541
H   56.015327   93.281731   28.070183
H   64.920021    8.628830   24.783861
H   24.677370   74.294525   33.799633
H   79.470467   96.710106   33.830009
H   86.310829   28.110804   20.152422
H   48.774773   14.202703   27.897858
H   56.315037   48.297009   16.455212
H   95.243088   95.099846   66.622475
H   61.332298   68.598595   36.268684
H    6.924191   16.373901   55.779083
H    7.949745   36.919262   43.711262
H   40.235180   78.291435   96.144760
