100
TIME:    3.098, STEP:  3098
H    7.817452   37.918877   96.309708
H   15.093756   72.714523   73.420914
H   33.006584   96.787064   86.973610
H   81.996597    5.011866   70.352478
H   67.422546   21.075863   81.705551
H   79.980965   97.851799   85.551323
H   90.604332   70.530418   32.720573
H   76.389603   56.617428   23.745625
H   77.473183   88.433243    5.078285
H   90.181419   60.866051   29.004168
H   12.086609   90.897446   41.334377
H   37.599152   78.977493   72.410118
H   46.198143   74.274017   17.213223
H    1.686517   95.526955   92.998665
H   18.183937   93.301743    1.853382
H   76.960327   40.766754   75.880226
H   74.984383   86.879395   55.411510
H   67.346642   44.044991   92.141296
H   93.519554    8.316783   26.577166
H    9.054977   40.025570   27.258844
H   80.437012   47.802193   73.156097
H   59.388626   48.196625   55.454956
H   44.381264   69.426384   43.713577
H   31.203766   73.837341   76.989693
H   18.781921   40.472786   59.419228
H   32.453831   35.299480   98.796181
H   94.934616   13.696273   61.442905
H   71.140892    1.043884   69.177116
H   78.533615   30.166475   10.728487
H   19.784435   14.164760   29.670277
H   37.980862   99.859741   64.275047
H   61.366798   66.914482   12.466652
H   88.576385   41.817482   76.889259
H    8.998698   89.809608   41.236557
H    3.762630   24.735229   13.375679
H   41.913631   27.848646    9.990579
H   76.937050   91.079575   52.575558
H   35.945206    2.252112   41.058308
H   14.304017   13.917231   44.092758
H   71.395737   22.158621   81.778847
H   23.525206   62.480976   15.333289
H   53.190575   50.899384   48.347519
H   37.925724   82.077728   25.245731
H   81.531128   64.695221   83.639732
H   87.926949    9.661280   21.215273
H   38.119152   22.006397   95.748085
H   65.937790   93.316925   55.199791
H   56.404865   27.280100   60.264610
H   55.585190   75.872673   20.893068
H   90.855003   77.895973   66.985138
H   43.308262   70.551544   86.081650
H   55.689442   76.268463   70.684959
H   73.141365   39.971985   22.941910
H    4.953228   56.662956   68.522736
H   94.125504   30.084923   26.697680
H   97.442520    9.276083   87.163574
H   92.652016    0.154968   50.633064
H   95.373039   84.319550   33.759354
H   34.609268   69.666733   73.648888
H   54.581703   65.911713   75.496101
H   55.125069   34.500759   72.850601
H   88.960533   99.106339   55.181343
H   84.383873   95.880791   21.031326
H   55.774467   58.646851   43.031132
H   55.288723   13.411521   84.072136
H   11.030100   88.262154   29.361912
H   39.010567   55.466663   16.633715
H   66.365700   94.714539   14.304915
H   11.305058   27.183800   65.932808
H   93.151184    3.962364   95.209625
H   23.657177   84.611580   24.986374
H   18.523180   48.708588   83.443146
H    4.995717   65.064751   82.314934
H   62.015293   53.332741   19.085197
H   11.539218   33.054607   36.247837
H   98.893913    6.124955   87.473419
H   48.233639   58.033546   45.839298
H   77.529999   48.150517   85.530838
H   10.074149   44.418926   52.246902
H   47.593636   40.230251   54.025711
H   71.504807   61.331890   65.148941
H   73.771317   64.459854   27.725000
H   13.809208   58.967957   24.968967
H   63.286350   77.261444   80.462158
H    1.481839   55.103893   47.436028
H   79.991638   22.848309   56.917751
H   74.063133   78.103081   71.267883
H    5.825464   57.260986   63.524223
H   19.975437   21.680449    2.854104
H   92.433472   81.815506   34.963989
H   50.805542   40.714649   98.885818
H    7.512280   28.493036   92.555382
H   84.042480   20.471922   58.577538
H   46.661724    1.148722   35.701042
H    3.026661   72.230286   87.276176
H   49.803696   73.394783    7.433216
H   16.697834   45.468349   59.020836
H   18.238760   42.615295    6.465706
H   61.131859   50.204556   85.546715
H   31.639605   99.135567   99.298935
