100
TIME:    5.108, STEP:  5108
H   71.889320   53.591682   94.469498
H   59.404549   81.659088    0.180795
H   67.558105   41.393555   63.387852
H   82.333969   22.201050   60.177574
H   49.419159   82.186234   27.205341
H   48.812603   95.674217   84.608696
H   85.259743    6.253405   89.905258
H   18.407570   30.508862   39.194538
H   28.063545   95.179916   78.557091
H   35.251152   89.726677    7.711980
H   25.121307   71.774063   47.720760
H   60.884956   79.728386   29.335569
H   18.114944   52.699715   17.465332
H    2.163673   89.331581   45.961746
H   42.632393   13.760436    5.234591
H   96.141541   64.964676    9.032246
H   13.352240   19.825779   38.389740
H   10.299022   46.279476   22.456079
H   24.827248   92.639191   32.471241
H   54.896614   97.341347   64.109016
H   61.160759   47.700317   18.604752
H   52.089279   50.864929   84.284912
H   17.544868   53.079185   86.203812
H   44.451351   97.934784   27.708237
H   46.892242   81.069870   74.263588
H   23.261175   75.653259   10.085096
H   21.609949   30.142960    1.315542
H    1.544181   94.863892   35.615990
H   22.239922   12.529894   15.714367
H   96.857346   64.416679   89.460274
H   17.086658   80.099472    5.250237
H   88.279549   11.385026   26.390877
H   30.157558   94.757179   57.965935
H   93.926147    5.605050   56.558983
H   53.800552   72.794418   35.769501
H   16.667395   85.508904    3.367611
H   69.721924   17.469662   10.955670
H   52.867695   65.477730   82.898750
H   29.462017   70.122673   49.308929
H   82.076622   33.989243   39.921207
H   86.156418   31.451033   62.687969
H   72.542534   41.107773   42.775928
H   55.239033   94.131104   70.429176
H   53.179592   98.380371   80.168991
H   13.574907   30.356178   93.215477
H   12.186962   60.344105    3.912400
H   81.640915    2.627677   74.498314
H   56.512211   47.980713   84.632042
H   14.343536    9.405880   40.714081
H   33.007809    8.478376   26.404106
H   43.154911   76.498917    7.273423
H   53.371407   89.755127   38.731621
H   14.826482   51.626648    6.203825
H   58.399391   23.861214   57.218102
H   34.088867    6.245220   43.793919
H   99.957474    7.160603   18.738434
H   20.077393   42.157677   41.800819
H   45.703018   94.499794   81.984482
H   93.134331   54.594757   19.338696
H   21.943951   20.405628   18.326912
H   81.916992   41.026134   16.136620
H   17.623274   80.397537   64.235535
H   20.842054   58.722458   83.199554
H   93.796547   69.588593   88.456818
H   35.067345   52.877262   71.254784
H   87.553581   88.339348   48.208153
H   77.743927   24.959957   13.676300
H   27.521416    9.668895   10.394538
H   11.483143   82.758034   39.868156
H   33.874344    5.059080   90.977142
H   59.830681   47.851959    0.872419
H   52.788544   82.000275   30.605251
H   73.940063   65.641945   30.779167
H   17.762600   26.134018   99.654137
H    8.449237   35.922268   88.618744
H   46.415932   34.947403   52.225140
H   30.727903   83.819038   81.386024
H   71.963455   16.720387   96.534554
H    6.461280   38.514919   74.674828
H   49.019257   30.760437   80.862518
H   10.827494   82.126266   85.282417
H   24.584763   77.586685   59.649803
H   40.967613   92.543152   16.403372
H    1.572638   49.261887   96.880707
H    3.611443   29.376396   52.589058
H   33.730991   96.678993   96.498093
H    8.306509   31.959717   67.112671
H   38.176285   96.336212   42.622505
H   61.689072    9.767294   86.413948
H   14.722524   99.116867    6.817076
H   33.063103   49.248272   41.333416
H   56.239170   79.649887   30.855764
H   12.886020   80.787239   14.014057
H   40.935699   23.070227   71.223763
H   68.276833   92.185661   33.461460
H   15.821486   94.022858    3.613976
H   57.153221   60.818310   43.423386
H   25.614935   59.729248   74.294991
H   65.379761   58.868877   17.188080
H   56.487309   47.553242    5.670276
