100
TIME:    3.756, STEP:  3756
H   63.319244   77.577026   95.707291
H   96.789543    8.388376   14.927017
H   44.316963   44.125328   79.252632
H   82.107040   77.902641   34.283642
H   61.528900   73.817467   63.863968
H   69.780037   97.138939   50.715736
H   56.117107   14.960047   84.177025
H   24.672104   13.544223   63.331539
H   61.298286   25.169418   63.661617
H   72.199272   70.313957   54.772552
H   50.881058   17.373066   77.952095
H   12.483383   11.959377   25.572542
H    4.343858   34.464294   51.812668
H   69.105858   93.498817   43.073849
H   26.188553   34.525925   70.226295
H   50.504181   83.215508   21.260592
H   22.072090   30.400959   15.311850
H   81.403038   12.046453   69.329773
H    3.769554   35.922539   61.241245
H   91.326408   26.053446   72.058586
H   41.390350   82.295776   55.296883
H   22.471725   49.070129   99.420212
H   35.596016   64.074913   24.887096
H   70.068398   81.729004   28.119946
H   95.248688   88.289536   64.278725
H   29.434591   15.693759   37.120911
H   38.194691   86.344803   74.496254
H   15.621768   31.757080   90.924370
H   92.841019   89.865921   79.624428
H   45.014450   97.878349   81.980042
H   63.879772   58.862507   12.216179
H    2.913426   48.735748   51.552315
H   34.924809   93.675896   36.167099
H   36.802002   29.507668   13.517010
H   87.406631   74.995262   53.441429
H   99.130486   79.539337    7.721800
H   40.048279   66.982895    4.423488
H    8.750764   90.212959   87.492134
H   86.530518   99.582146   80.328117
H    9.420574   60.559975   33.548252
H   78.555984   85.061234   30.835432
H   94.053238   80.430084   79.261551
H   43.593464   86.023560   72.772697
H   39.512543   75.719452   47.975372
H   30.850805   83.698547   77.521667
H   29.630093   34.556751   98.418800
H   71.078415   29.102421   61.520149
H   56.440006   34.055542    0.977952
H   74.820175   21.377945   94.645050
H    4.652034   87.906136   20.965176
H   43.258060    7.025684   93.019485
H   87.667740   15.210178   27.487415
H   86.786110   43.787292   84.727058
H   89.713707   45.924873   97.559235
H   41.735306   87.753357   32.292759
H   98.265823    8.583303   64.763702
H   34.365734   81.168785   13.214397
H   46.376457   22.179840   16.809105
H   86.504646   97.468277   23.132603
H   11.162358   16.486250   56.781013
H   96.631599    3.901765   21.548908
H   65.606834   92.981766   25.406883
H   29.054750   50.980644   75.910271
H    0.956716   62.226212   25.164448
H   81.405174   60.859509   45.349293
H   70.608162   55.550911   68.267838
H   86.217300   78.216064   48.402386
H   20.913338   32.347549   45.761120
H   44.101463   79.904129   24.662457
H    6.483370   37.058411   93.824066
H    2.761633   39.841957   17.092201
H   64.266647   26.870972   31.618095
H   62.093338   32.519009   65.447258
H   47.528530   11.691891   79.985558
H   43.262936   33.993374   86.127968
H   14.450055   48.297653   43.198132
H    7.975046    1.001070   57.475986
H    8.444041    5.124411   21.869188
H   41.625977   42.486172   59.591370
H   15.324139    4.393394   97.338554
H   84.376450   68.139206    4.476560
H   23.141357   68.757095   72.703003
H   55.441174   69.952026   87.640411
H    8.557432   33.568428   20.364670
H   69.443222   13.943815   83.650406
H   64.850891   47.019341    2.611139
H   18.009481   30.261131    2.643845
H   16.415453    4.579893   56.681770
H   33.632431   85.044426   97.471565
H   34.257504   54.745186   58.483353
H   77.733582   76.243919   12.781655
H   56.201591   77.975151    5.095013
H   26.220596   40.216141    9.461771
H   10.258913   41.062012   80.065849
H   91.650490   13.289501    2.396640
H    4.151795   47.410530   73.446587
H   64.468719   83.229851   21.178289
H   20.653448   48.217773   95.935738
H   29.786095   53.040936   30.432541
H   72.509621   82.247810   35.912399
