100
TIME:    2.979, STEP:  2979
H   15.864830   48.831810   96.418655
H   18.404015   66.263000   65.914413
H   30.961088   88.225586   88.369957
H   81.976624    9.914968   76.874817
H   68.488419   11.537488   84.932220
H   81.825813   97.980721   73.766808
H   96.841591   62.495354   23.414619
H   85.742767   46.322773   34.672176
H   80.398430   99.874573   12.569124
H   93.433510   59.157387   24.343927
H   23.155701   86.109192   52.796589
H   42.141365   73.012604   80.880806
H   53.767288   81.473648   29.040863
H    7.578549   95.893745   83.943291
H   16.736294    3.931283    7.573727
H   81.744949   51.174896   85.758156
H   84.553627   79.007919   44.578472
H   64.804527   49.831932   96.266785
H   91.665627    3.324358   20.308130
H   12.260765   42.552250   19.156763
H   87.498642   59.649353   76.386398
H   47.979980   48.038651   65.588913
H   45.970085   70.394203   47.118195
H   42.260147   72.410126   85.827171
H   23.037693   49.910385   58.541039
H   32.999477   38.844822    9.950062
H    5.195927   18.643061   59.081463
H   81.182243   95.489372   65.244102
H   75.946106   19.370207   16.353369
H   15.221755   17.110123   20.210434
H   33.297016   89.188309   73.689949
H   53.853035   70.202888   23.483086
H   80.194672   50.524223   66.168800
H    3.970532    0.715268   46.249969
H    6.720897   33.730682    6.129745
H   31.567207   18.500475   10.399587
H   65.522957   95.437485   43.198788
H   40.863289    4.430046   32.661160
H   19.327339   16.509733   55.624878
H   82.604645   33.299034   72.416603
H   31.657701   58.398159   12.529927
H   63.885612   45.558220   42.756683
H   36.900707   81.364120   16.650208
H   89.130234   62.700882   72.004112
H   98.249748   14.356247   11.031837
H   39.654408   19.736652   95.265083
H   65.008102   86.845428   54.056747
H   56.398510   26.054892   52.901558
H   52.107033   85.728813   25.640013
H   88.360100   76.085625   75.308746
H   43.317341   82.040085   84.826935
H   49.906132   87.310318   78.496513
H   70.673698   39.281982   29.853283
H    7.708698   58.604950   63.271454
H    3.600279   19.655899   25.685827
H   97.293625    9.401165   91.214615
H   85.107384    3.588808   39.315208
H    4.234036   95.557510   36.824417
H   25.224327   64.638794   82.784157
H   62.434113   56.764828   78.880745
H   47.618568   40.034397   82.129318
H   93.184074    0.214015   60.566086
H   76.305397    4.001148   29.191513
H   47.602478   57.999519   46.262341
H   50.564930   22.915913   72.990334
H   18.340340   94.178017   22.326157
H   48.558022   51.352978   10.888083
H   74.585808   87.908936    8.616027
H    5.373937   35.734383   73.395729
H   90.739807   97.977119   95.460205
H   27.436302   92.708214   26.414043
H   28.335287   52.657944   74.730957
H   12.755022   70.951561   85.365471
H   64.634361   60.863754   26.157722
H    5.801940   32.884830   27.226723
H   96.081245   98.498161   95.481079
H   37.428745   68.347794   43.734791
H   71.939163   55.932110   78.959473
H    4.367856   44.768467   50.918648
H   53.429604   46.711735   64.277695
H   69.176956   60.100780   58.036472
H   64.843048   63.682693   37.675758
H    6.280237   56.981476   13.634817
H   55.099834   67.078461   91.331512
H    7.276360   62.547749   58.971779
H   82.729858   18.477234   48.654064
H   66.115395   86.755348   65.593521
H    3.910254   66.788467   64.762245
H   17.505501   28.305834    3.827711
H    2.954374   86.710892   30.710350
H   45.935577   34.289455   96.372757
H   98.706909   19.543886   90.287453
H   76.414322   16.901159   49.375084
H   35.159565   93.930855   27.677704
H    5.084298   82.889008   84.541588
H   39.974792   78.094063   13.579912
H   26.143150   38.639141   65.864571
H   17.802061   41.602081    8.369795
H   66.800774   49.691593   95.513908
H   24.248407    2.189159   10.762689
