100
TIME:    3.555, STEP:  3555
H   76.912262   96.009796   95.891312
H    2.380812   97.490540    2.248341
H   40.861969   29.664467   81.611168
H   82.073303   86.183586   45.301899
H   63.329239   57.706432   69.314056
H   72.896126   97.356697   30.809313
H   66.651161    1.387255   68.458565
H   40.470306   96.155197   81.785835
H   66.239250   44.494690   76.313103
H   77.692299   67.427895   46.901054
H   69.577591    9.285662   97.314171
H   20.155525    1.884610   39.879829
H   17.129189   46.625015   71.790276
H   79.058327   94.118355   27.777103
H   23.743374   52.480240   79.887398
H   58.585770    0.795661   37.945656
H   38.235268   17.106976   97.014023
H   77.109215   21.821190   76.298035
H    0.639071   27.489779   50.652370
H   96.742760   30.321966   58.373558
H   53.317978    2.305161   60.751572
H    3.201660   48.803299   16.537155
H   38.279655   65.709633   30.638519
H   88.743462   79.318329   43.048649
H    2.437625    4.229233   62.794289
H   30.356997   21.682856   55.960060
H   55.527935   94.699356   70.509132
H   32.581570   22.375076   84.281212
H   88.470520   71.629440   89.126045
H   37.307037    2.853250   66.000885
H   55.968403   40.839184   28.118660
H   90.222176   54.288582   70.159904
H   20.766535    8.381901   18.059431
H   28.309101   47.928169   21.984276
H   92.402802   90.189262   41.202499
H   81.651558   63.750309    8.415635
H   20.770100   74.343735   88.585503
H   17.058113   93.890312   73.307182
H   95.013885    3.961149   99.806740
H   28.352501   79.376404   17.733873
H   92.293152   78.163513   26.099958
H   12.118034   71.409988   69.818207
H   41.862133   84.818222   58.254047
H   52.348007   72.351868   28.323320
H   48.285313   91.629852   60.321835
H   32.223255   30.722980   97.602974
H   69.508102   18.170807   59.589462
H   56.429272   31.985312   88.541206
H   68.943771   38.024178    2.662584
H    0.436423   84.848320   35.022846
H   43.273396   26.431465   90.900177
H   77.899292   33.861549   40.683254
H   82.618034   42.621826   96.400124
H   94.369438   49.205048   88.689423
H   57.738998   70.136414   30.583532
H   98.014328    8.794928   71.606216
H   21.623812   86.968513   94.097435
H   61.343498   41.162003   21.986996
H   70.651237   88.975708   38.563854
H   24.425812    1.036154   62.497932
H   83.952553   13.248881   37.219830
H   72.740715   94.852646   34.502121
H   15.408826   64.696342   89.693443
H   87.155083   61.132820   30.622204
H   73.427864   76.912575   26.631071
H   82.955971   65.543251   56.383148
H    2.343777   71.266205   38.698345
H   34.797722   20.851629   36.152157
H   34.083054   94.346710   37.269428
H    2.411176   26.948374   94.247314
H    9.144478   53.517784   19.503643
H   80.840805   33.541733   16.901783
H   75.198700   42.460743   70.599846
H   51.954235   24.411575   91.928520
H   33.572697   33.706608   70.891029
H    9.698096   35.414650   56.722141
H   89.725899   18.422504   53.921314
H   99.000687   18.267385   10.768303
H   31.987875   43.076572   57.347847
H   25.181557   15.340343   14.654678
H   80.444534   66.059769   92.463226
H    8.059505   67.444412   89.510254
H   42.723789   66.596710   68.496094
H   94.728729   16.367901   38.722298
H   79.230072   26.516987    3.135114
H   69.475952   39.635498   88.653091
H    4.585150   44.875465   93.059341
H   13.180517   20.672256   58.771942
H   29.460823   96.235970   99.115486
H   52.029331   63.015396   51.298866
H   69.507843   65.389748    8.536904
H   41.328094   62.860779    1.264825
H   13.336747   34.184853   93.918053
H   90.831764   28.869286   66.512703
H   95.125420   31.294422   97.777916
H   87.549988   55.347969   83.828438
H   80.423340   71.694801   32.738594
H   19.915831   46.506378   99.153038
H   39.361320   52.174503   47.268929
H   60.024288   87.406532   55.276009
