100
TIME:    9.954, STEP:  9954
H   44.173248    9.192832   90.032852
H   25.570850   44.257526    5.735866
H   50.870960   90.034935    6.494617
H   83.147354   22.546114   94.549454
H    6.002909   70.613983   95.812843
H   73.663330   90.424187   64.524712
H   31.281345   33.480118   68.868942
H   37.521530   49.748753   94.250053
H    8.939552   29.255428   73.519585
H    2.877337   59.309696   97.460091
H   74.358124   66.761902   80.926811
H   75.925850   22.632381   84.392738
H    9.016071   59.485458   35.906898
H   62.218918   74.394875   14.743374
H    1.507498   80.892487   72.210716
H    1.293172   41.115768    6.771561
H   23.665657   40.350082   79.540237
H   13.927733   10.477230   54.470924
H    0.306724   95.934418   87.789139
H   24.338123   94.428436   94.047234
H   73.591751   65.266914   87.073242
H   16.680023   57.298065   71.603241
H   52.841583   13.671524   47.584229
H   94.187576   55.906952   67.804855
H   73.572495   96.757767   10.047531
H    0.670268   32.659592   54.166691
H    3.734038   28.700319   97.465866
H   92.652290   21.058781   95.797447
H   27.611385   52.196598   86.641556
H   82.673973   44.478134   74.703163
H    7.807291   14.650549   21.850296
H   94.259079   77.491760   77.772453
H   71.504799   40.199982   94.531883
H   98.681686   61.497978   52.404854
H   33.228340    6.012484   30.662642
H   37.921131   65.075836   88.133369
H   34.517342   39.998787   92.801712
H   52.573360   76.793648   24.867393
H   24.909855   64.536095   79.696083
H   25.638241   80.322845   21.194281
H   54.965866   97.730011   76.856407
H   61.344566   80.643570   88.118401
H   96.951263   23.201038   20.460720
H   43.756039   79.726723   53.981594
H   93.190887   39.125217    7.886724
H   49.643219   52.768139   23.600584
H   19.514690   66.175293   21.020643
H   56.795162   97.892975   84.474304
H   55.993027    8.064295   47.376923
H   34.717102   82.248833   87.549416
H   46.707661    8.940933   52.383652
H   88.893112   40.081818   20.617571
H   15.338640   79.725403   24.759174
H   46.177383   44.796700   71.058907
H   48.242836   30.925516   84.998901
H    5.993454    2.063082   53.769135
H   27.292503    2.327691    2.695608
H   84.860794   36.854927   57.163231
H   75.332405   59.364960   47.316784
H    2.158463   92.885162   80.495155
H   87.610107   15.664427   38.311077
H   45.631004   35.291641   44.969101
H   49.867397   28.087938   50.917191
H   26.563084   95.986633   56.891144
H   27.413574   65.834389   22.541239
H   89.860199   47.430717   34.743023
H   88.940041   92.498169   47.641674
H   92.774757   86.816902   42.061371
H   53.009331   34.555374   35.935490
H   32.185532   48.606884   80.731354
H    5.938582   18.125202   42.752144
H   53.578705   21.089256   85.669647
H   57.973145   25.944666    6.526775
H   11.085690   19.432022   11.721006
H   41.964363   42.971989   56.020542
H   60.979637   45.531246   26.151745
H   70.818306   64.257370   67.281395
H   99.629051   99.862297   64.173973
H   38.843437   24.280682   28.744913
H   11.372359   66.777657   63.375252
H    5.681327   32.261059   74.920464
H   88.235893    9.032861   54.251419
H   47.486229   73.584389   77.911987
H   34.968555   63.944656   54.272568
H   67.654953   26.237747   82.825684
H   22.198589   74.682365   33.019306
H   31.960070   79.614952   98.188210
H   16.115238    8.548657   92.376221
H   62.258549   39.949028   46.779915
H   86.271637   99.739853   80.047211
H   31.382010   10.917747   43.672386
H   14.794100   44.115097   23.189684
H   23.523960   26.184149   88.762688
H    5.387681   16.775967    3.958198
H   84.491531   58.111839   44.817268
H   16.081223    2.660325   53.311920
H   72.500694   38.917252   64.724380
H   19.063784   78.983856   79.047203
H   34.527275   79.785973   11.285168
H   57.491432   23.199776   38.839710
