100
TIME:    0.738, STEP:   738
H   67.414467   54.342934   98.470352
H   80.741402   44.758762   24.552977
H   92.444305   26.998356   14.674538
H   81.600479    2.243574   99.710197
H   88.560852   31.911476   45.694572
H   16.572357    0.410432   51.832676
H   14.292379   11.170172   48.165333
H   61.880951   52.447598   40.433624
H   35.486549   15.337831   53.633484
H   54.672188   26.981277   36.589775
H   31.608063   95.937729   68.660759
H   27.672787   60.682808   40.396965
H   96.318665   17.057571   51.777237
H   18.540211    2.801844   13.401630
H   89.478157    4.103429   15.296947
H   71.850677   47.186771   71.779770
H   64.732445   30.802109   40.547951
H   16.914795   58.811737   73.961227
H   56.756134    9.311969    2.244665
H   72.672401   90.058899   66.535881
H   20.482574   82.747223   37.213226
H   33.112171   45.074013   56.417049
H   75.890663   88.620110   11.234472
H   50.473343   45.532902   52.265259
H    3.189466   27.645557   42.007782
H   43.275059    5.620145   20.000738
H   98.439850   11.798676   14.610937
H   70.269890   90.886536   91.167801
H   27.218307   16.049257   22.286400
H   29.290930   72.574326   42.057125
H   45.132572   88.223000   51.012627
H   12.354853   32.121895   30.943703
H   22.341179   14.486761   64.281822
H    9.284236    6.089440   40.659904
H   62.427681    3.132930   69.666473
H   36.721649   42.459179   18.104979
H   50.582386   77.508644   66.616829
H   33.487671   45.446697   74.519325
H   17.542126   64.753868   71.393692
H   93.682228   43.094311   96.098137
H   84.807419   81.503365   59.730106
H   65.293938   44.980415   37.472523
H   17.597662   67.925507   54.778847
H   32.232498   25.139296   52.890388
H   92.639549    2.774478   19.260202
H   68.525993   77.077690   86.212364
H   43.872669   65.553360   33.929390
H   56.278828    2.981804   14.241149
H   86.602898   71.327316   15.034444
H   41.368008   41.982227   32.048058
H   43.488316   98.394005   61.198231
H   40.997734   95.257843   25.613411
H   24.188128   26.287903   60.009399
H   59.599529   95.161873   64.382401
H   82.007797   23.201498    6.668509
H   94.489639   11.756342   67.503540
H   43.037132   68.252266   26.177498
H   71.105652    7.192201   94.545486
H   48.480728   69.950775   54.827564
H   10.319049   84.512909   42.619102
H    6.253935   44.250053   56.854431
H   72.718079   21.076157   61.964622
H   24.290665   56.827614   82.928322
H   93.716194   45.809021    7.102133
H   61.616631    1.900744   64.290718
H   56.008797    5.584935   89.822182
H   28.357882   73.875702    2.692306
H   29.387215   59.744247    1.483268
H   93.683250   96.758362   13.945585
H   45.335945   85.262840    0.178862
H   98.596535   45.189320   53.296268
H   13.115925   27.032875   10.654081
H   58.872940   81.801704   42.825657
H   13.947169    2.676934   59.347069
H   97.754562   29.693785   57.343433
H   43.106533   54.872475   46.271191
H   33.960331   62.580681    4.092773
H   66.652908    2.464251   55.198353
H   96.925652   51.340672   25.917419
H   63.332626   68.762672   57.341797
H   25.323956   36.916607   24.096935
H   96.695503   49.047256   25.067013
H   64.490471   19.575045    0.190823
H    0.936578   75.313210   96.021950
H   16.394819    2.720641   76.211678
H   34.306881   36.162258   93.032097
H   16.444082   49.694313   58.733791
H   67.835510   46.207832   88.069069
H   70.998238   53.081261   22.162399
H    1.087095   78.917862   50.595562
H   54.224552   13.282076   49.046947
H   32.891483   51.010521   47.584541
H   32.634789   49.742874   76.008415
H   18.557886   57.999054   76.577446
H   43.832951   83.624084   33.043999
H   54.877365   66.588249   29.330452
H    4.023724   10.032651   94.745758
H    9.574840   22.521301   44.227921
H   73.555473   40.031521   83.232674
H   85.073746   59.748821   26.606215
