100
TIME:    2.609, STEP:  2609
H   40.885895   82.762779   96.757401
H   28.696220   46.201141   42.574879
H   24.601149   61.605865   92.711540
H   81.914520   25.159910   97.154358
H   71.802475   81.880371   94.964722
H   87.561897   98.381569   37.123806
H   16.233124   37.510078   94.480049
H   14.824043   14.314144   68.645103
H   89.493736   35.448761   35.859600
H    3.544554   53.844734    9.854106
H   57.572205   71.221344   88.437332
H   56.264214   54.466309    7.217925
H   77.303200    3.859153   65.814720
H   25.898689   97.034187   55.787106
H   12.235218   36.980530   25.359583
H   96.621506   83.536346   16.471712
H   14.307000   54.534676   10.895913
H   56.897942   67.824944    9.094936
H   85.901314   87.803650    0.816071
H   22.228340   50.408314   93.965523
H    9.454865   96.482574   86.430191
H   12.507721   47.547470   97.097855
H   50.910118   73.403389   57.703979
H   76.637131   67.972565   13.306153
H   36.270378   79.255646   55.811317
H   34.696026   49.868153   44.629868
H   37.101707   34.023685   51.739162
H   12.402409   78.219017   53.012867
H   67.900909   85.801064   33.842644
H    1.034723   26.267532   90.796959
H   18.735086   56.008907    2.963172
H   30.490913   80.427345   57.735863
H   54.132809   77.595604   32.836281
H   88.337257   34.623398   61.837891
H   15.918582   61.699738   83.598305
H   99.396347   89.435173   11.671292
H   30.036385    8.988180   14.044173
H   56.154808   11.201939    6.552144
H   34.946312   24.570456   91.481049
H   17.455141   67.938225   43.305096
H   56.943516   45.703686    3.812272
H   97.139091   28.951241   25.373953
H   33.713680   79.145340   89.924370
H   12.757063   56.499023   35.828331
H   30.344511   28.953419   79.369972
H   44.427891   12.679462   93.763313
H   62.115643   66.723969   50.502747
H   56.378750   22.245420   30.008034
H   41.292595   16.372517   40.400223
H   80.602837   70.456810    1.188750
H   43.345570   17.761438   80.925720
H   31.924417   21.643108    2.784838
H   63.000755   37.136597   51.343697
H   16.276127   64.642784   46.943939
H   33.057899   87.224045   22.543959
H   96.830673    9.790016    3.810287
H   61.649570   14.265624    4.124999
H   31.785004   30.500061   46.354446
H   96.043846   49.005703   11.188490
H   86.851807   28.324354   89.404427
H   24.278563   57.239826   10.978297
H    6.315414    3.658619   77.306320
H   51.200245   29.239431   54.570724
H   22.194315   55.986809   56.308956
H   35.877506   52.468166   38.532227
H   41.070137   12.571754    0.449778
H   78.243385   38.562527   93.024185
H    0.144132   66.748657   90.927887
H   86.934227   62.320229   96.599770
H   83.242249   79.368721   96.239319
H   39.185661   17.883204   30.853016
H   58.842278   64.937454   47.640938
H   36.880447   89.255089   94.850334
H   72.775536   84.277069   48.147926
H   87.961937   32.356953   99.177353
H   87.335976   74.786003   20.377327
H    3.834840    0.415682   37.191364
H   54.555889   80.125099   58.526737
H   86.623825   45.855274   46.788780
H   71.575050   66.863846   96.153610
H   61.938297   56.272961   35.922062
H   37.080147   61.266312   68.614479
H   82.872360   50.805023   78.394287
H   29.645962   35.417084   25.126465
H   25.293037   85.689865   94.839241
H   91.243652    4.886497   22.960247
H   41.403938   13.657379   47.950546
H   97.954910   96.411728   68.612648
H    9.826433   48.906929    6.854893
H   35.667706    1.932198   17.483765
H   30.793671   14.310712   88.559036
H   71.330658   91.720024   83.235909
H   52.682270    5.808804   20.754642
H   99.396858   71.488991    2.730613
H   11.482185   16.030853   76.039085
H    9.414336   92.705269   32.690872
H   55.512070   17.405468   87.143410
H   16.444258   38.451752   14.290071
H   84.426811   48.096668   26.506760
H    1.269007   11.688950   46.401886
