100
TIME:    3.562, STEP:  3562
H   76.438873   95.367859   95.884903
H    2.186088   97.870041    2.689890
H   40.982292   30.168056   81.529030
H   82.074478   85.895195   44.918179
H   63.266541   58.267513   69.124252
H   72.787605   97.349113   31.502546
H   66.284264    1.859943   69.005974
H   39.920120   96.760818   81.143150
H   66.067177   43.821671   75.872505
H   77.500999   67.528404   47.175186
H   68.926468    9.567310   96.639870
H   19.888336    2.235473   39.381554
H   16.683918   46.201508   71.094505
H   78.711723   94.096779   28.309826
H   23.828529   51.854965   79.550941
H   58.304321    0.183406   37.364601
H   37.672371   17.569950   97.651260
H   77.258751   21.480782   76.055359
H    0.748093   27.783457   51.021137
H   96.554131   30.173311   58.850151
H   52.902588    1.608273   60.561607
H    3.872757   48.812592   15.941040
H   38.186195   65.652702   30.438221
H   88.093086   79.402283   42.528744
H    2.187275    3.674080   62.845985
H   30.324873   21.474279   55.303970
H   54.924290   94.408401   70.647987
H   31.990953   22.701813   84.512566
H   88.622726   72.264542   88.795143
H   37.575455    2.679988   66.557373
H   56.243923   41.466862   27.564842
H   90.664162   54.095200   69.511879
H   21.259604    7.869764   18.690046
H   28.604889   47.286659   21.689396
H   92.228806   89.660118   41.628731
H   82.260277   64.300201    8.391469
H   21.441490   74.087387   89.137077
H   16.768814   93.762245   73.801186
H   94.718445    3.808649   99.128380
H   27.693180   78.721115   18.284620
H   91.814743   78.403732   26.264875
H   11.488914   71.724121   70.147079
H   41.922428   84.860199   58.759640
H   51.901001   72.469147   29.007742
H   47.678143   91.353638   60.920834
H   32.132946   30.856495   97.631386
H   69.562790   18.551510   59.656700
H   56.429646   32.057404   88.974327
H   69.148422   37.444458    2.383342
H    0.583235   84.954811   34.533276
H   43.272861   25.755642   90.973984
H   78.239487   33.211975   40.223698
H   82.763191   42.662415   95.993599
H   94.207298   49.090813   88.998322
H   57.181656   70.749939   30.643053
H   98.023087    8.787558   71.367920
H   22.067560   86.766533   94.763191
H   60.822258   40.500946   21.806671
H   71.203346   89.271469   38.026432
H   23.963905    1.574217   62.298836
H   84.394112   12.923360   36.674076
H   72.492271   94.787491   34.185371
H   15.884057   64.218681   89.213432
H   87.635735   61.170898   30.432133
H   73.705681   76.353523   27.282969
H   82.525948   65.195259   56.797043
H    1.782138   71.508240   39.036297
H   34.314186   21.251986   36.486797
H   34.431953   93.843735   36.830379
H    2.552992   27.300451   94.232574
H    8.922190   53.041512   19.419662
H   80.263596   33.309418   17.414291
H   74.742294   42.114513   70.420403
H   51.800106   23.968601   91.512596
H   33.910168   33.716595   71.421669
H    9.863587   35.863312   56.251156
H   90.361427   17.815788   54.045109
H   99.329559   17.809671   11.154894
H   32.323532   43.056011   57.425980
H   24.838264   14.959106   14.051634
H   80.581467   66.132187   92.881607
H    8.584737   67.490128   88.924927
H   43.166683   66.713562   69.162811
H   95.210342   16.966927   38.082977
H   78.889236   26.079113    2.456551
H   69.314880   39.892647   89.139191
H    5.052664   44.366508   93.393127
H   13.293177   20.111816   58.699150
H   29.606113   95.846214   99.058235
H   51.410412   62.727379   51.549072
H   69.794312   65.767754    8.684731
H   41.846077   63.387199    1.398214
H   13.785449   34.394897   94.459373
H   91.508308   29.293888   66.984703
H   95.004402   30.667385   97.938774
H   88.128159   55.071541   83.466881
H   79.867706   72.096519   32.336021
H   19.941519   46.565979   99.040993
H   39.027855   52.204678   46.682587
H   60.459064   87.226875   54.601654
