100
TIME:    0.746, STEP:   746
H   66.873451   53.609291   98.463028
H   80.518867   45.192539   25.057615
H   92.581757   27.573887   14.580605
H   81.601822    1.913954   99.271721
H   88.489197   32.552711   45.477654
H   16.448303    0.401725   52.624973
H   13.873114   11.710379   48.790943
H   61.252167   53.139675   39.699066
H   35.289894   14.568651   53.129883
H   54.453560   27.096115   36.903069
H   30.863922   96.259628   67.890129
H   27.367428   61.083809   39.827507
H   95.809753   16.573563   50.982132
H   18.144093    2.777178   14.010456
H   89.575447    3.388871   14.912380
H   71.529022   46.487003   71.115707
H   64.089256   31.331161   41.276344
H   17.085754   58.422699   73.683884
H   56.880707    9.647601    2.666116
H   72.455849   89.891174   67.081657
H   20.007843   81.950836   36.996124
H   33.879261   45.084572   55.735836
H   75.783852   88.555046   11.005575
H   49.730057   45.628849   51.671082
H    2.903352   27.011097   42.066803
H   43.238377    5.381780   19.250891
H   97.750031   11.466111   14.769690
H   69.594841   91.259949   91.432205
H   27.392258   16.775057   21.908257
H   29.597662   72.376328   42.693111
H   45.447269   88.940407   50.379570
H   12.859964   31.900887   30.203102
H   22.904686   13.901464   65.002525
H    9.622264    5.356301   40.322868
H   62.228828    2.528178   70.153656
H   37.417206   43.087597   18.077452
H   51.349659   77.215675   67.247200
H   33.157043   45.300274   75.083900
H   17.182476   64.583092   70.626968
H   92.928688   42.345348   96.727531
H   84.260666   81.777901   59.918644
H   64.574944   45.339485   37.848377
H   17.666571   67.973480   55.356667
H   31.721651   25.273359   53.672615
H   91.945580    2.458846   19.944803
H   68.423820   77.228081   86.243736
H   43.957142   65.984879   33.997749
H   56.279255    3.064175   14.736144
H   86.836784   70.664719   14.715306
H   41.535793   42.103992   31.488548
H   43.487705   97.621666   61.282581
H   41.386528   94.515533   25.088203
H   24.354082   26.334290   59.544739
H   59.414288   95.031380   64.735428
H   81.370956   23.902822    6.736395
H   94.499649   11.747934   67.231201
H   43.544273   68.021431   26.938362
H   70.509949    6.436715   94.339432
H   49.111649   70.288788   54.213367
H    9.791141   85.127777   42.391563
H    6.758589   43.878044   56.230713
H   72.434143   21.001694   61.602623
H   24.833298   56.282082   82.379494
H   94.265511   45.852539    6.884909
H   61.934196    1.261790   65.035713
H   55.517342    5.187238   90.295204
H   27.716005   74.152313    3.078563
H   28.834602   60.201767    1.865714
H   94.081932   96.183533   13.443830
H   45.497993   85.665184    0.162039
H   98.342506   44.644947   53.200321
H   12.456303   26.767372   11.239805
H   58.351334   81.405952   42.620518
H   13.771098    2.170670   58.871605
H   98.140305   29.705168   57.949879
H   43.295681   55.385231   45.732922
H   34.686710   61.887321    4.234329
H   67.028763    1.941146   55.640186
H   97.309074   51.317234   26.006622
H   62.940292   68.327003   56.652588
H   25.480511   36.999371   24.575054
H   97.295723   49.099503   24.398037
H   64.996696   19.708559    0.952774
H    1.486922   75.997780   95.291237
H   16.005262    2.220225   75.436165
H   34.122738   36.456142   93.587639
H   16.978384   49.112648   59.115261
H   67.964294   45.567329   87.985939
H   71.164253   52.635826   22.096939
H    0.379791   78.588638   50.881573
H   54.551945   13.714052   49.215893
H   33.483402   51.612206   47.736946
H   33.148094   49.982559   76.627312
H   19.331141   58.484344   77.116875
H   43.694645   82.907532   33.227837
H   55.538132   66.272331   28.917244
H    3.388729   10.491742   94.285675
H    9.604213   22.589417   44.099930
H   73.174370   40.066006   82.562508
H   85.570572   59.543316   25.835676
