100
TIME:    7.284, STEP:  7284
H   24.734861   54.043068   92.477310
H   99.311111   99.571968   37.384670
H    4.976091   97.944618   37.838047
H   82.699203   32.550568   40.902058
H   29.928041   56.602062   68.206146
H   15.061742   93.316795    0.104695
H   71.214432   53.189175   60.071438
H   47.378258   18.760906   39.401375
H   74.573250   85.966415   41.585178
H   75.807716   20.972445   92.915810
H   22.715088   59.330097   38.117828
H   77.831802   88.800049   74.446114
H   79.273170   21.094563    1.243099
H   94.421501   82.624550   11.555065
H   69.077461   19.390038    0.616152
H    8.649090   74.643677   28.405596
H   38.371223   63.749325   36.479610
H   56.832691   40.399475   47.024773
H   58.712795   83.926041   47.110355
H   96.275436   51.127224   12.261148
H   32.033829   31.072151   59.540279
H   60.704514   53.753601   98.978424
H   88.490303   35.381920   23.946878
H   42.269417   23.966036   66.101639
H   69.066719    8.501724   90.333900
H   13.262630   11.369652    5.425462
H   33.971195   39.689827   44.495113
H   17.939243   96.432213    7.541816
H   69.554375    9.953671   12.853750
H   80.294357   10.560791   62.445641
H    2.725540   75.225464   33.092110
H   25.673336   51.260326   24.947670
H   83.432381   35.549767   53.997200
H   85.867775    6.187610   64.887909
H   99.676857    8.168983   68.217361
H    5.823600   55.943054   96.526009
H   78.428970   37.780396   82.416107
H   62.929161   25.651196   36.452782
H   37.612659   22.710238   38.438278
H   77.121559   30.279364   11.124059
H   37.441299    6.116393   13.952526
H   86.358025   70.167358   51.820263
H   73.973358    7.182457   27.604893
H   14.236378   34.904198   92.926628
H   24.823101   44.501804   79.421455
H   84.101585    1.847705   12.753302
H   98.640915   20.966946   95.383080
H   56.632198   70.392822   19.270153
H   77.947762   29.189159   53.913734
H   78.668701   41.600574   74.235664
H   43.001438   66.420334   30.210060
H   59.131084   87.837631   95.887360
H   59.966022   64.243835   79.825966
H    8.013649   88.357773   53.238785
H   60.832077   96.939415   62.304661
H    2.667972    4.871662   44.662247
H   58.024586   79.369576   48.756508
H   83.674240   89.003212   25.936708
H   64.749321   46.542065   52.292610
H   78.349449   87.660370   56.436302
H   19.180845   39.831741   46.477440
H   40.394539   60.143631   65.778015
H   68.572456   10.235677   33.984711
H   43.219181   81.442108   29.378727
H   21.436485   79.083801   73.896080
H   53.879761   80.164177   76.870773
H    3.159127    0.190375   18.733797
H   77.209984   34.117729   14.419921
H   19.934967   26.404541    3.391932
H   77.959023   14.501860   86.394348
H   90.731895   99.798340   74.774544
H   73.447136    9.742146   89.960701
H   32.061325   58.014851   74.988831
H   69.856560   88.415039   70.363098
H   13.349133   39.040485   53.579441
H   97.853249   74.409813    5.809204
H   28.325733   95.351265   19.924028
H   74.195892   74.438240   16.706911
H   10.808492   32.123318   98.946312
H   42.310410   12.225287   93.398170
H   53.411201    4.638680   15.337594
H   87.882179   91.708511   77.624336
H   78.604942   28.932287   23.634293
H   51.276379   35.467159   98.136986
H   97.659378   93.263756   41.650200
H   83.649826   76.608887   47.606339
H   53.636677   73.746330   70.872566
H   73.175774   22.200583   20.054153
H    6.846264   88.611137   68.617073
H   22.335032    9.591152   84.602020
H   22.114033   66.745155   87.286545
H   17.241137   43.305466   72.313194
H   52.371891   46.076244   82.287483
H   51.236366   55.084679   17.947687
H   30.657394   97.272568   83.465363
H   95.550095    8.095098   91.220680
H   84.432884   85.693665   18.279362
H   24.217516   46.871075   32.655983
H   61.720085   68.256279   34.926113
H   91.648918   91.715256   96.048981
