100
TIME:    1.755, STEP:  1755
H   98.639313   61.078873   97.539261
H   52.451744   99.897591   88.705162
H    9.921721    0.166337    2.733682
H   81.771179   60.344261   43.966076
H   79.451675   13.428502   18.119392
H    0.801635   99.306770   52.549770
H   60.989262   79.843987   27.696144
H   81.946754   40.431431   47.056244
H   10.486748   17.557434   89.615913
H   26.879827   41.582558   76.414787
H   37.009201   36.858585   70.698257
H   88.856308   11.659622   68.006248
H   31.627197   55.527473   50.695778
H   68.184303   99.666451   90.795906
H    1.846646   13.263670   66.412857
H   30.960251   58.231911   87.361099
H   82.968094   98.057938   33.143501
H   38.648018    9.355009   38.703903
H   72.596657   51.979225   55.821301
H   45.234581   68.542587   35.821175
H   60.132446   81.501709    9.610981
H   30.628788   46.416336   69.820778
H   62.312248   80.348915   82.137115
H   55.983009   57.730198   76.733200
H   66.815056   46.986298   49.510826
H   38.611843   75.314087   24.676489
H   10.742794   69.525650   34.792339
H   84.460007   38.357174   24.782877
H   49.331726    8.319539   74.212700
H   68.287865   47.403824   22.905857
H   85.138466   79.424667   70.536774
H   76.569000    4.025525   36.794914
H   93.977127   40.077705   55.901215
H   52.254402   12.887371   97.816498
H   37.148552   26.255745   31.595619
H   25.145370   22.347975   14.606526
H   48.126022   40.264992   46.752384
H   91.454353   26.832630   46.286274
H   71.823502   43.043922   73.919113
H   97.892357   47.886372   76.114578
H   15.306892   16.401735   83.691574
H   73.891785   90.622643   85.253021
H   26.357679   74.024155   28.239166
H   67.290672   42.184464   52.328106
H    4.422676   62.645084    6.289911
H   55.445606   96.390724   90.297066
H   54.611256   20.412615   42.619576
H   56.333141   13.452749   77.167397
H   16.331701   87.100426   74.467789
H   62.697758   57.461620   60.916439
H   43.410725    0.209188   71.921295
H   90.423164    0.887756   58.850674
H   45.285103   32.184814    0.941435
H   36.050678   78.572929    9.260237
H    1.043714   12.357275   15.298561
H   95.762131   10.687527   32.882462
H    7.511999   38.907372   22.902670
H   95.376312   11.149325   68.350784
H   28.689995   12.921264   76.751694
H   43.206280   62.684238   13.693355
H   70.407394   96.957222   77.561668
H   36.622772   11.609161   15.945437
H   93.273041   87.475151   13.158467
H   63.553413   51.341255   79.493279
H    1.980107   20.674831   59.001743
H   93.532967   55.026772   49.954647
H   46.761917    9.038632   51.794079
H   59.135933   17.907509   50.101749
H   44.371956   23.683212   50.162842
H   65.937073   36.414345   98.037598
H   66.303185   75.990440   41.098972
H   29.259634   93.279892   85.114799
H   92.561935   31.496754   16.747341
H   91.566246   38.319702   98.903694
H   46.786682   31.140856   34.439312
H   67.150948   20.051256   77.839775
H   26.297243   74.436020   22.086290
H   14.433421   35.965378   11.361171
H   45.675392   48.361179   37.259132
H   13.457069   13.372469   69.726387
H   45.226032   47.437939   84.881172
H   73.003326   55.689041   40.025833
H   28.841572   36.549103   97.055054
H   70.899239   62.339214    3.130074
H   66.875504   39.108276   77.624924
H   10.897694   73.520317   63.655785
H   84.367195   75.750122    7.228315
H   84.207199   64.785049   77.499794
H   92.102974   96.457069   13.841274
H   11.172503   37.070305   86.954674
H   95.844337   68.195099   70.524124
H    8.139311   27.498285   66.960182
H   97.888771   80.216965   54.686813
H   16.854748   19.685946   45.148918
H   26.249573   92.526947   56.414391
H   38.877411   26.427717   76.800827
H   23.298622   68.396355   36.257706
H   13.308904   31.180450   27.956135
H   25.108242   44.415409   98.043564
H   48.232803   33.623951   28.654476
