100
TIME:    2.065, STEP:  2065
H   77.674957   32.650223   97.255447
H   43.828545   16.705393    8.259686
H   15.250319   22.468185   99.094841
H   81.823212   47.572655   26.973095
H   76.675034   38.276371    9.714523
H   95.995491   98.970924   83.249809
H   44.743305    0.775302   51.938545
H   57.581367   67.249725   18.592117
H    2.866334   87.751984   70.103737
H   18.409178   46.033699   88.552544
H    8.173752   49.332188   40.838184
H   77.026016   27.198244   45.939751
H   11.908196   36.772133   19.884995
H   52.834724   98.710945   14.386959
H    5.617607   85.573303   51.510666
H   18.495667   31.116768   61.628677
H   58.044540   18.558754   61.366386
H   45.272697   94.279533   27.956387
H   77.426216   64.984802   72.153580
H   36.883369   61.958851   56.927437
H   41.736603   50.640697    1.197101
H   60.353519   46.825500   43.424278
H   58.173302   77.827705   73.267944
H   27.180672   61.448154   53.710136
H   55.727409   22.400955   51.797890
H   37.190411   66.075958   95.619987
H   84.011803   56.639164   40.943996
H   58.302383   52.826931   35.029377
H   56.072296   36.444618   59.558464
H   80.174919   39.731400   47.549892
H   97.332985    7.224482   46.007565
H   96.142670   95.460060    8.096642
H   15.813124   17.397041   83.828461
H   65.352394   84.477890   84.756348
H   29.442623    2.821879   50.471581
H   52.098492   46.701069   13.541043
H   77.858948   28.912130   71.179260
H   78.640175   21.158726   68.161644
H   57.910423   36.422668   44.198112
H   68.692680   18.864614    0.503640
H   94.121925   27.038828   90.995041
H   46.030762    4.534906   99.817383
H   29.027891   75.883133   50.629883
H   47.494682   47.380615   82.638474
H   77.531563   50.415089   32.818230
H   51.446201    2.303486   91.555305
H   57.861492   37.139984   45.277405
H   56.349697   16.644468   96.348457
H   25.392447   61.425007   62.102615
H   69.197563   62.180019   39.235455
H   43.387074   70.281044   75.189880
H    5.488504   72.123215   38.498882
H   51.715843   33.982300   82.938133
H   28.872562   73.516319   22.938864
H   76.366043   39.533924   17.928724
H   96.150009   10.361732   22.329330
H   27.163973   29.962517   52.386162
H   72.292816   81.873657   60.366165
H   53.138161   26.020300   52.952835
H   22.750423   86.510513    4.876807
H   89.962143   82.539497   53.391262
H   25.620956    8.723133    1.918419
H   14.300070   66.335777   91.891037
H   84.839478   53.027580   71.078209
H   14.284724   95.915558   87.870712
H   74.489082   39.615700   68.284264
H   21.889914   19.755754   66.760513
H   37.722206   35.637329   64.921539
H   59.823235    1.408600   30.719254
H   72.218811   52.007530   97.384827
H   56.459587   54.897346   37.381016
H    3.698968   82.991653    7.810897
H   72.349686   16.163731    8.798199
H   84.745262   18.701899   80.479469
H   61.731827   31.581949   57.939068
H   74.478065   39.919853   56.980282
H   54.444206   47.566895   27.569803
H   28.997784   15.694952   28.482059
H   60.535393   47.452976   40.716927
H   98.253761   96.489334   43.019539
H   51.292545   50.645031    3.409328
H   96.261841   57.713577   14.103384
H   48.455448   41.723969   26.580814
H   92.223091   88.866310   74.814941
H   51.781357   19.716721   47.573807
H    3.762326   84.905968   85.183037
H    5.071417   53.210602   22.010603
H   89.197586   39.965561   74.273781
H   98.536079   79.196480   11.305283
H   83.764877   24.315254   98.037590
H    8.530975   84.935364   77.070755
H   31.076826   50.812435   72.868233
H   17.778332   89.507126   78.669052
H   46.818356   38.490177   66.049644
H   20.889046   64.760529   63.538109
H   64.482117   14.186991   60.789017
H   98.692734   86.186729   18.429489
H   14.447114   33.819916   22.995312
H   10.341436   45.751698   72.074631
H   67.484818   25.661560   98.796417
