100
TIME:    1.457, STEP:  1457
H   18.791433   88.407059   97.812088
H   60.741142   83.741676   69.907372
H    4.799243   78.726677    6.232156
H   81.721161   72.621483   60.301601
H   82.120834   89.542503   26.198982
H    5.422849   99.629616   23.037039
H   76.608177   59.722500    4.392114
H    5.368973   14.651508   74.417671
H   17.812157   46.208832    8.373538
H   35.023003   37.303719   64.746880
H   64.728439   24.867832   99.404221
H    0.228695   96.722771   89.218559
H   50.581886   73.556801   80.314690
H   82.939705    0.585111   68.119423
H   98.222099   39.881092   80.736282
H   42.941910   84.296501   12.097243
H    6.926868   78.350723    6.012179
H   32.279778   23.846939   49.034958
H   67.954048   39.476921   40.122372
H   53.262520   74.872177   15.531931
H   77.816193   11.167915   17.699169
H    2.054414   46.023010   95.193703
H   66.290977   82.772530   90.662964
H   83.670418   54.156162   98.864029
H   77.473503   70.620583   47.312294
H   39.978252   84.194611   52.607468
H   36.439896   81.912003   28.878813
H    9.604797   24.447536   14.932681
H   42.852081   81.282562   88.299675
H   56.860958   54.779251   99.216393
H   73.415993   52.701248   94.118134
H   57.753025   12.258515   64.382286
H   72.987625   61.881142   29.055021
H   39.663429   40.197304   10.370485
H   44.555809   48.782173   13.450340
H   99.234802   98.938248   15.630797
H   19.544609   51.178078   23.271063
H    3.771965   32.286900   25.258121
H   85.219315   49.405342    2.479730
H   25.960653   75.784264   52.668530
H   35.671165    6.176453   76.670822
H    0.674322   77.249565   71.252441
H   23.790831   72.237137    6.714469
H   86.320366   37.189453   23.192095
H   30.271912   74.403671   80.789383
H   59.290195   90.706825   89.087532
H   51.464649    4.336624   40.073189
H   56.317226   10.384581   58.728832
H    7.621682   11.781166   86.353958
H   56.447742   52.925869   81.760094
H   43.433460   28.979929   68.779236
H   75.940590   28.539995   78.412979
H   39.103294   30.456909   18.248928
H   42.950932   83.433800   96.110733
H   24.767967   86.233459   12.769794
H   95.389267   11.000710   43.027084
H   88.619400   47.505974   94.560173
H   17.566093   39.292305   76.026321
H    5.188209    0.329682   99.628250
H   62.870296   39.778126   22.169029
H   51.609600   10.815507    0.797384
H   47.199371   14.383472   29.429916
H   73.061096    7.796554   33.602394
H   43.089104   49.720207   87.582603
H   90.152840   44.476185   31.248434
H   11.839401   69.841286   32.334560
H   70.670670   98.736145   37.406994
H   79.720741    0.863864   35.855625
H   29.518791   45.095596   68.853188
H   59.900040   21.425570   98.665100
H   75.765739   96.266045   44.673008
H   53.830120    3.170061   63.297646
H   11.992390   46.236240   24.388775
H   98.123192   57.178879   16.614754
H   32.420059   30.716837   11.848209
H   60.106205    0.952114   97.892570
H   99.240715    0.263673   16.815012
H    0.432833   55.452057   94.903870
H   31.390619   49.234226   33.935188
H   28.071609   29.602274   95.399422
H   39.394352   44.354992   67.070107
H   50.643787   53.742874   64.944046
H    9.986777   31.574652   68.671936
H   50.399319   36.838970   30.349129
H   81.385361   57.749191    6.512661
H   17.757023   62.575108   42.961845
H   64.464455   97.417145   93.018387
H   79.409988   88.643784   80.597771
H   85.918892   13.049026   16.279163
H   37.519989   49.331612   76.300774
H   83.648964   52.104527   64.230911
H   86.090202    5.086671   61.281921
H   78.768135   71.286423   31.632902
H   88.052223    1.609926   25.057079
H   31.402596   19.220093   49.566429
H   14.263855   38.195122   92.192825
H   46.952316   51.294643   53.395798
H   12.214753   28.643158   32.724754
H   39.303795   43.130848   23.005238
H   29.726028   41.279026   57.356026
