100
TIME:    4.315, STEP:  4315
H   25.516144   26.313751   95.195511
H   81.305946   38.687645   50.181007
H   53.925629   84.342690   72.693321
H   82.200867   54.872551    3.642444
H   56.521988   18.623781   48.706757
H   61.112476   96.533333    6.074617
H   26.821602   52.708042   27.891626
H   80.735802   61.903202   12.004375
H   47.556999   71.423706   28.472708
H   56.922646   78.340370   76.661469
H   98.884247   39.865788   24.107182
H   91.148232   39.979164   85.782951
H   68.718063    0.652925   96.261963
H   41.427101   91.775826   85.613373
H   32.988518   84.594391   43.354580
H   28.028141   34.323479   74.858337
H   77.120461   67.373169   66.199821
H   93.344566   84.862099   49.947285
H   12.475948   59.374847   90.693771
H   76.263023   14.182287   10.117838
H    8.218491   26.645390   40.126877
H   76.063599   49.812210   51.816162
H   28.132561   59.528603    8.892320
H   18.131279   88.433319   86.603516
H   75.255157   43.958946   68.407082
H   26.876116   99.091385   84.655266
H   89.991585   63.109837   85.584816
H   68.453796   57.849319    9.401246
H    4.996142   40.582272   53.199532
H   66.449493   84.043236   26.418396
H   85.877800    8.990331   67.989876
H   38.208843   33.292793   99.802910
H   74.300880   52.776161   86.526230
H   60.420639   78.278778   89.967690
H   73.511810   32.739311   87.481995
H   47.733006   23.398472    5.862371
H   93.663834   46.511703   48.470387
H   85.645134   79.985893   26.939243
H   62.937275   87.401787   26.156458
H   56.767960    8.227036   77.530151
H   40.351624    4.243583   44.005230
H   43.813522    5.516637    5.524086
H   48.408459   89.375717   13.151188
H    3.817526   85.085022    2.632958
H   82.361031   61.641296   25.357145
H   22.418262   45.218830    0.688759
H   75.445602   59.502342   66.887276
H   56.469860   39.813065   35.565651
H   91.163010   75.080841   72.348511
H   16.376057   96.410210   81.867409
H   43.215412   53.058250   98.913483
H   14.833555   63.340534   90.789703
H   98.377922   47.028564   52.261616
H   76.765678   36.802399   22.225113
H   97.227814   36.744564   37.048046
H   98.965256    7.994761   45.734024
H   69.802917   65.039192   66.379845
H    4.751990   69.389107    2.409879
H   30.591528   21.088264   80.218712
H   74.272537   59.454426   40.881721
H   31.894678   77.903831   77.964058
H   45.766838   87.778671    0.112703
H   67.006981   12.835008   37.577965
H   39.342819   65.268814    9.985912
H    3.591246   16.211742   97.405830
H   36.267738   27.761269    1.320240
H   41.368332   97.544281   75.390244
H   82.299110   64.316727   72.484550
H   71.962387   39.737946   89.602997
H   17.808630   65.176270   92.646973
H   85.011238    1.806894   10.385754
H   18.175949    8.318513   72.546776
H   25.645716    4.870106   51.113586
H   35.220226   76.318550   46.771049
H   70.213387   34.790897   28.504671
H   27.666643   84.124107    5.585344
H   58.729797   52.551525   67.361870
H   34.706875   68.574455   52.742302
H   68.431145   40.844212   65.829567
H   87.909363   73.950691   49.180077
H   95.311478   73.922318   37.885860
H   65.085869   72.407791   25.960173
H   90.806190   79.283478   40.882488
H   47.014717   81.402779   69.307541
H   42.225067   78.979424   29.461456
H   51.984173   67.553764   41.429993
H   55.343819   89.617264   29.299482
H   25.412115   59.824883   50.868805
H   45.232773   53.919685   92.899666
H   84.834732   31.744949   78.467178
H    0.610148    6.429864   24.586710
H   97.562729   20.010979   15.747107
H   62.053368   56.989723   52.690105
H   64.289932   74.970306   17.757315
H   81.986382   63.219254   15.241246
H   50.322906   25.336407   44.573677
H   20.097984   15.309407   89.029114
H   22.704832   52.977325   86.988121
H    3.156584   55.450565   83.610451
H    7.233105   67.900917   82.062744
