100
TIME:    8.484, STEP:  8484
H   43.583488   43.997765   91.378677
H   66.169022   64.601303   13.047950
H   25.603090   84.277176   23.750763
H   82.900620   83.109123   75.126656
H   19.175173   52.787266   35.668304
H   96.452637   92.016747   18.944603
H    8.324365   34.218399   53.913013
H   53.060623   22.576021   29.220978
H   45.074959   70.590637   66.050980
H   43.031837   38.202671   39.903633
H   11.094009    7.614789   22.528028
H   32.030731   48.949596   89.029030
H    2.753067   48.460747   81.990311
H   35.003777   78.925819    2.875293
H   83.652657   12.200119   42.904747
H   60.400116   69.687279   28.795048
H   41.874275   43.120899   45.720345
H   82.488327   82.007622    5.429950
H   77.405273   34.267788   10.332843
H   63.939030   25.646955   93.962807
H   60.824135   11.607800   26.974264
H   75.749687   55.346619   96.787338
H   72.468575   25.625391   89.612473
H   30.771643   38.321503   76.978958
H   26.147423   13.336113   99.196205
H    7.604408   75.995163   92.499847
H   30.493788   89.806961   68.306320
H   16.686686   52.444141   47.209282
H   95.646904   18.826906   56.128563
H   26.306892   80.860275   57.842133
H   49.955387   82.832191   38.152000
H    1.442349   18.109081   13.857658
H   67.959488   47.752266   62.102676
H   36.571854   96.214813   14.334089
H   69.812355   17.312126   41.226269
H   10.137392   49.934418   92.754036
H   93.525169   93.831795   76.971397
H   13.333445    3.688970   21.133911
H   86.959465   96.566734   22.149582
H   64.094467   17.939417    5.537621
H   55.430038   47.287712   42.223843
H   85.228516   74.873169   13.084435
H   84.300507   14.380791   14.282053
H   37.611744   55.049194   10.255847
H   20.731972   97.160393   82.109795
H   68.610863   24.731567   17.628485
H    8.021047   86.226509    6.904604
H   56.705441   82.752441   93.519417
H   13.027618   29.805283    6.042816
H    3.862955   59.865345   90.331169
H   42.919041   50.568245   42.862000
H   17.451078   76.487183   17.114521
H   84.851540   71.201843   10.134588
H   80.220886   68.783798    6.192362
H   65.286201    2.101541   72.505157
H    4.162571    3.609379    3.811417
H   34.100540   44.744331   62.886452
H   94.320007   75.678017   95.025780
H   59.391048   97.247124   60.170273
H   99.163277   79.896866   22.305443
H   94.877426   84.025757   52.915798
H   97.804161   48.974197   11.479927
H   50.039997   28.350412   51.697113
H   25.620483   87.978973   96.796860
H   69.069382   83.241241   85.646652
H   80.163460   20.508415   47.824650
H    6.880959   41.675762   76.669418
H   94.317703    2.745817   71.786865
H   79.743958   40.180199   28.130890
H    2.330415   74.772720   83.849182
H   52.624912   18.148972   60.382454
H   74.629913   69.897850   77.919235
H   53.818680   98.658684   44.221096
H   43.441570   12.467926   99.063759
H   71.154053   40.807453   44.564167
H   26.223703   51.318428   25.064150
H   37.311356   91.488281   41.207443
H   30.571100   95.976738   82.984558
H   68.350288   28.598537   12.337687
H   83.462303   46.856071   90.017113
H   76.903633   17.053232   87.060028
H   77.928268   99.490494   77.232063
H   54.507088   49.000645   37.916607
H   33.835243   38.153786   88.535149
H   39.230423   18.196102   25.324505
H   56.034878   20.684525   30.938049
H   33.782032   86.496239   28.093147
H   92.475090   26.175686    7.612101
H   31.753132   21.796652   58.802620
H   16.238989   60.223434   27.500048
H   71.222923   31.542263   12.628684
H    6.028986   33.556854   95.183067
H   29.294132   82.079338   75.085327
H   67.210495   27.887318   98.861931
H    9.906967   89.784286   11.040125
H   94.665176   60.707947   29.239479
H   89.182579   54.558037   49.266228
H   21.901232    6.248963    8.564005
H    4.554947   73.438164   34.413662
H   66.183762   60.917835   80.449722
