100
TIME:    2.203, STEP:  2203
H   68.342438   19.994888   97.129105
H   39.989830   24.187517   16.964468
H   17.622404   32.396118   97.475548
H   81.846375   41.887230   19.408848
H   75.438980   49.337681    5.972935
H   93.856087   98.821419   96.915886
H   37.511234   10.093969   62.730324
H   46.734840   79.189117    5.921200
H   99.473991   74.483887   61.417355
H   14.638372   48.015175   93.955803
H   95.337341   54.884953   27.545694
H   71.759628   34.115509   36.116600
H    3.130196   28.422981    6.169078
H   46.001686   98.285591   24.889202
H    7.296255   73.246460   44.876617
H   12.946587   19.046822   50.173599
H   46.949539   27.684914   73.930954
H   48.221748   87.568626   23.171680
H   79.576149   70.773407   79.424606
H   33.165733   59.028751   66.323128
H   33.547485   36.901974   97.451218
H   73.584106   47.008499   31.672455
H   56.330803   76.705360   69.319733
H   14.358986   63.103245   43.460579
H   50.791618   11.456512   52.816002
H   36.557644   61.964024   82.684593
H   72.112419   50.902149   43.682476
H   46.658844   59.268307   39.591251
H   59.072937   48.965187   53.034966
H   85.466576   36.315933   58.520657
H    2.761837   19.600283   35.088390
H    4.856009   91.646614   95.321342
H   25.533627    7.300665   96.260590
H   71.183113   71.830978   78.942474
H   26.011890   92.390106   58.874428
H   64.096848   57.542332   13.066731
H   91.095459   23.857893   82.053162
H   72.935799   18.632923   77.900566
H   52.084969   33.415710   30.824778
H   55.694790    5.945334   11.361227
H   84.690437   31.774050   94.246262
H   33.628113   10.728671    6.300528
H   30.216566   76.710678   60.597275
H   38.682274   49.693741   96.131882
H   65.560585   44.970768   44.628029
H   49.665821    4.935627   92.115425
H   58.940670   44.644745   46.602951
H   56.357067   18.065298    4.887079
H   29.425940   49.996250   56.597229
H   72.090813   64.280327   29.583920
H   43.376545   56.958199   76.644928
H   12.194674   59.317989   29.439053
H   54.578560   34.782471   74.923790
H   25.677143   71.265312   29.028059
H   65.380539   51.632298   19.099501
H   96.322678   10.216702   17.631485
H   35.912159   25.980614   65.511070
H   62.016937   68.841400   56.811722
H   64.021538   31.851545   42.357941
H   13.644199   97.116989    0.951979
H   98.667160   76.121284   42.632122
H   20.723595    7.438385   95.674698
H   23.660538   56.925346   82.423752
H   94.315186   53.778267   67.332146
H   19.762211   84.894257    0.721905
H   66.011482   32.755287   76.443901
H   10.817549   24.526773   73.422989
H   28.189644   43.529541   71.518738
H   66.701134   91.492805   22.063721
H   75.015198   58.949013   97.094238
H   52.077599   45.507805   35.725071
H   92.319946   78.411728   17.914637
H   63.351974    9.338062    5.259548
H   81.708824    9.968799   72.277718
H   68.385521   31.778307   68.400253
H   77.739815   48.764900   47.695141
H   66.973999   35.605392   30.010851
H   35.481274    6.671426   36.103687
H   67.152725   47.047825   42.257088
H   91.486000   88.974045   31.130684
H   53.993122   52.072704   11.657137
H    6.616137   58.614822    2.563559
H   57.186787   44.027618   39.724674
H    1.715805    0.675146   62.210144
H   45.062027   11.084501   34.196213
H    0.585989   89.974419   94.766136
H   14.288122   43.176880   28.590956
H   91.419113   28.916885   72.837685
H    1.400045   71.512733   10.176357
H   71.564377   18.637199    2.970843
H   14.178497   92.387482   79.985062
H   41.288433   61.190441   75.498268
H   26.632328   93.642746   89.345016
H   60.156994   46.861439   75.354790
H   18.502747   52.399002   66.709312
H   75.880341    8.737669   53.661179
H   87.738815   94.106316   10.492874
H   14.953801   34.994904   20.786945
H    3.767664   46.346561   60.514587
H   76.055069   22.117119   85.505157
