100
TIME:    7.857, STEP:  7857
H   85.985588    1.496954   91.952713
H   83.485764   30.623264   73.515152
H   14.825571   39.167542   31.110378
H   82.795380    8.941559    9.493143
H   24.793547    2.530511   52.669327
H    6.175284   92.696022   56.851784
H   41.184566   91.879440    4.880802
H    2.341591   68.331352   86.790077
H   60.487816   30.874924    5.516320
H   60.157234   29.199877   15.352421
H   69.416031   82.386139   82.923233
H   55.963234   17.521145   33.658684
H   42.734978   86.412109   44.299648
H   66.049538   80.858406   55.162205
H   76.037117   68.206863   73.057404
H   85.609848   24.527161   80.841095
H   92.293739    1.651285   88.642059
H   69.084595   12.517273   27.163864
H   67.637100    7.962606   77.298477
H   80.834793   38.960941   51.273689
H   98.031212   74.028625   43.990345
H   15.638581   54.514267   50.182144
H   80.839928   30.722349    7.551595
H   89.029373   30.820772   23.544342
H   48.572456   63.061951   94.565651
H   10.560955   94.479111   51.504288
H   84.561279   15.870219   55.865757
H   69.590050   23.177893   26.482447
H   82.013557   61.940449   85.767937
H    2.266097   96.378372    7.997856
H   25.277288   26.608353   87.758247
H   61.853054   35.430607   71.902229
H   23.793104   93.627281    5.617566
H   10.078397   53.675514   40.747696
H   85.416557   64.784874    3.077153
H   55.633152    0.822385   94.724892
H   33.387806   16.794924   27.566069
H   39.247971   15.163712   76.887505
H   13.424476   10.227011   82.910866
H   23.152206   76.637741   56.207802
H   98.281799   25.775724   27.451994
H   38.068855   72.414383   81.073479
H   78.904572   10.619661   68.991768
H   77.647095   44.521812   48.950787
H   75.118614   21.896038   28.455070
H   76.704765   12.774882   15.081202
H    3.119376   52.128792    0.883170
H   56.667171   76.294540   54.724178
H   94.699898   81.733223   31.054504
H   90.699463   50.322002   34.170670
H   42.962093   11.100737   36.251022
H   86.978455   34.667294   58.273743
H   71.849632   67.566284   46.549019
H   94.743988   79.011200   78.524368
H   15.208805   47.155167   67.176193
H    3.381643    4.268922   25.155975
H   94.352219   62.836021    3.253463
H   41.007004   34.891014   11.176213
H    9.938946   70.755379    8.303959
H   40.537453   31.703365   40.138817
H   55.326366   13.185148    1.803272
H   20.057655   54.810226   39.850098
H    7.471839   71.135406   94.692383
H   82.566277   84.563461   13.820203
H   44.181129   33.318508   27.257467
H   18.680119   51.678551   10.751346
H   57.186798   19.999809   46.398602
H   37.629128   66.887566   41.812637
H   48.494911   85.232430   67.456696
H   89.596336   43.280445   85.179031
H   72.537117   60.812027   67.902321
H   26.262852   90.716209   31.961451
H   94.699585   29.673307   60.298878
H   57.242344   52.149319   36.316742
H   40.950211   39.884212   97.024826
H   11.399604   11.132393   67.251747
H   80.365929   45.757736   30.085913
H    1.116360   36.972454   48.353237
H   38.284477   30.440235    5.340431
H   14.210803   81.011192   44.033577
H   64.628838   10.566628   49.585068
H   30.879787   95.424408   29.687923
H   14.847043   38.514927   78.204376
H   90.698448   84.499512   45.801197
H   69.759552   57.417088   86.105049
H   70.464951   97.653976   87.397034
H   91.906044   32.084572   98.195335
H   82.391197   76.349731   14.113091
H   18.739265   56.706886   63.930672
H   71.675140   86.017471    5.086852
H   45.563526   97.687645   99.387253
H   59.637333   86.401123   83.233559
H   89.102432   63.269917   26.598452
H    6.615010   89.847984   56.584209
H   20.749065   45.947937   96.632751
H   42.877594   85.468018   61.624657
H   38.950310   18.576462   85.325233
H   23.111490   75.222908   21.152128
H   34.423546   70.730629   86.931053
H   27.239954   77.009048   40.850780
