100
TIME:    2.886, STEP:  2886
H   22.153786   57.360405   96.503799
H   20.990974   61.220665   60.047993
H   29.362509   81.534683   89.461220
H   81.961014   13.746805   81.972107
H   69.321411    4.083127   87.453903
H   83.267586   98.081474   64.557060
H    1.715927   56.215271   16.141899
H   93.052383   38.277370   43.211414
H   82.684547    8.816278   18.423237
H   95.975060   57.822044   20.701891
H   31.806335   82.367111   61.754452
H   45.691162   68.350967   87.500755
H   59.682671   87.100250   38.284073
H   12.183246   96.180397   76.866402
H   15.604942   12.238282   12.044312
H   85.484192   59.308990   93.477882
H   92.032112   72.856262   36.112316
H   62.817413   54.354500   99.490906
H   90.216759   99.422806   15.408800
H   14.766129   44.526882   12.824884
H   93.017395   68.907684   78.910919
H   39.063980   47.915192   73.508728
H   47.211769   71.150566   49.778946
H   50.900848   71.294739   92.733772
H   26.363632   57.285988   57.854919
H   33.425907   41.615551   18.666914
H   13.215431   22.508955   57.235966
H   89.029686   91.148445   62.169979
H   73.923935   10.932681   20.749285
H   11.655816   19.411850   12.817448
H   29.636763   80.848450   81.047813
H   47.980934   72.772820   32.092567
H   73.644257   57.328651   57.790627
H    0.040947    9.238071   50.168015
H    9.032784   40.760742    0.466951
H   23.481007   11.194761   10.719232
H   56.603287   98.843246   35.870724
H   44.706833    6.132128   26.098682
H   23.253189   18.535807   64.637375
H   91.364548   42.005722   65.099892
H   38.013683   55.207386   10.339065
H   72.243919   41.384033   38.387375
H   36.099644   80.806427    9.932811
H   95.069031   61.142036   62.910812
H    6.316866   18.025326    3.073352
H   40.854229   17.962818   94.887611
H   64.281540   81.787872   53.163445
H   56.393543   25.097376   47.147240
H   49.388809   93.431511   29.349810
H   86.410301   74.670815   81.813751
H   43.324436   91.018524   83.846359
H   45.386402   95.939667   84.601341
H   68.745186   38.742737   35.254822
H    9.862133   60.122643   59.167511
H   11.004848   11.505485   24.895052
H   97.177261    9.498903   94.380554
H   79.211159    6.272435   30.470161
H   11.158908    4.340252   39.219803
H   17.889877   60.709393   89.923485
H   68.571396   49.616276   81.525887
H   41.752144   44.359005   89.380753
H   96.484825    1.079813   64.774200
H   69.991966   10.347395   35.568802
H   41.215965   57.493622   48.787571
H   46.873226   30.343666   64.329765
H   24.053505   98.801338   16.827625
H   56.019478   48.138081    6.397831
H   81.009926   82.590271    4.170089
H    0.738668   42.416771   79.228096
H   88.855286   93.299873   95.656036
H   30.389736   99.035835   27.529785
H   36.003387   55.744415   67.922272
H   18.819052   75.552177   87.749504
H   66.680656   66.749008   31.684990
H    1.318131   32.752148   20.176441
H   93.883110   92.538078    1.739035
H   28.984713   76.408096   42.090092
H   67.569855   62.013523   73.823868
H   99.908295   45.041637   49.880600
H   57.990486   51.777096   72.289749
H   67.357712   59.138653   52.477985
H   57.864868   63.075333   45.452248
H    0.396231   55.429016    4.777175
H   48.701969   59.120331   99.826050
H   11.804795   68.364685   67.987114
H   84.869812   15.061184   42.195889
H   59.904137   93.517204   61.158936
H    2.413492   74.234314   65.730049
H   15.575253   33.483757    4.588597
H   11.176977   90.536697   27.385830
H   42.129639   29.267891   94.408768
H   91.825851   12.550100   88.515038
H   70.452820   14.110443   42.183250
H   26.170483   88.290062   21.407200
H    6.692368   91.218933   82.404472
H   32.293381   81.766609   18.383545
H   33.524857   33.302029   71.213036
H   17.460775   40.810242    9.857864
H   71.231102   49.290707    3.304321
H   18.472094    4.575410   19.721720
