100
TIME:    8.756, STEP:  8756
H   25.189342   19.054457   91.129654
H   58.656815   79.339340   30.198402
H   30.278505    3.846086   20.558075
H   82.946274   71.903069   60.217926
H   16.737856   74.589264   28.293583
H   92.235840   91.722069   45.882210
H   94.068535   52.585953   75.183769
H   31.681961   46.106663    4.246247
H   38.388680   44.439026   48.928791
H   35.602638   42.108189   50.553535
H   85.793243   18.558739   96.327446
H   21.648529   62.583630   69.667458
H   85.408524   31.998222   54.959511
H   21.536566   78.087440   23.575359
H   86.956367   87.903755   29.824791
H   49.463837   45.897240    6.216090
H   20.001717   61.110767   70.481575
H   88.304031   68.772026   96.001053
H   81.642822   45.679287   24.662067
H   56.611515   19.870649   12.481745
H   44.683266   84.529816   19.591757
H    1.826592   55.707703   73.624008
H   68.836983   23.414270   81.830490
H    5.498877   41.575409   56.778263
H   16.419945   91.765244    1.204412
H    6.321419   67.976608   66.904388
H    7.038893   78.501297   73.701828
H   93.736145   65.140182   56.201103
H    1.561307   43.504574   43.270653
H   36.736259   74.128342   79.465668
H   60.661320    7.223639   16.632225
H   18.616322   10.594425   88.677315
H   87.117691   27.851360   86.606583
H   48.064285   71.287567    2.875795
H   63.043068   96.717964   57.775951
H   33.781208   71.239746   91.899055
H   19.613667   83.870857   98.404015
H    2.091571   98.711403   40.327393
H   75.479485   90.639977   95.791306
H   38.476173   92.475716   26.938074
H   36.840439   56.619865   48.632046
H   62.305908   75.939819   26.970604
H   86.641327   16.012417   33.927975
H   20.244434   59.616699   36.849476
H   97.138000   86.431633    5.385482
H   65.099632   29.918518   18.733526
H   10.147603    1.018576    9.516647
H   56.722042   85.553955   10.348963
H   20.977692    7.279029   95.192871
H    9.572336   64.005363   71.314079
H   42.900364   24.308418   45.729919
H   30.671110   51.247608   99.258919
H   90.491920   72.778992   94.337540
H   73.920593   64.347031   18.194256
H   43.629463   25.938574   74.816925
H    4.501347    3.323261   94.551880
H   51.343338   36.895943   88.755836
H   74.066101   49.991249   88.019920
H   80.844414    8.740518   39.287582
H   81.212837    0.802454   14.569115
H   12.035511   71.375366   31.709377
H   88.150352   46.442459   99.172600
H   68.506653    9.789002   33.045258
H   44.298962   89.460663   89.413315
H   79.864548   61.517857   10.976786
H   63.453987    6.986789   63.907413
H   85.057938   51.078472   89.801254
H   75.528885   18.302441   84.790039
H   93.299133   20.636009   11.070860
H    7.854805   88.435806   83.272278
H   43.985874   99.640999   57.120247
H   52.231346   60.866600   97.857712
H   36.084061   85.203117   37.246365
H   37.454632   95.252968   82.902138
H   84.256836   41.207966   65.187454
H   32.654732   68.751579    6.762209
H   62.014481   67.947266   46.032272
H   43.348194   78.192314   98.008972
H   81.394966   27.799587   15.373178
H   70.122948   32.039177   66.584007
H   82.228584   19.867197    3.317189
H   98.339890    1.255699   54.476341
H   71.711601   53.549473   63.821270
H   52.547279   61.429176   63.690937
H   25.986526    1.181145   98.957764
H   49.774014   30.675552   49.826477
H   51.948292   66.719627   41.063118
H   96.849602    4.410200    4.791757
H   37.397709    6.652594   56.578011
H   92.190598   49.031906   37.222816
H   82.354271   46.228420   18.372826
H   26.154230   54.014130    0.366771
H   46.729923   90.239006   96.119507
H   93.499069   44.389271   17.201960
H    5.203691   65.421494   17.289988
H   17.131332   49.966736   15.190376
H   67.592247   70.167656   33.623405
H   21.376207   19.707607    3.103128
H   91.597527   74.612724   11.630093
H   83.080002   53.938953   54.247532
