100
TIME:    4.522, STEP:  4522
H   11.518154    7.330924   95.005997
H   75.588936   49.905304   63.233795
H   57.483757   99.235344   70.264381
H   82.235611   46.344414   92.296516
H   54.667908   35.215744   43.093979
H   57.901791   96.309074   26.574713
H   15.972708   66.685989   44.079296
H   64.466011   79.812103   92.998512
H   42.468544   51.521561   15.442802
H   51.265648   81.312584   84.766357
H   79.629608   48.194935    4.167923
H   83.248650   50.355064   71.048225
H   55.508926   88.135475   75.693359
H   31.177608   91.137794    1.365282
H   35.505898   66.104126   33.403507
H   19.704521   16.218559   57.675720
H   60.474800   81.065567   85.043846
H   97.768745   74.791618   42.770458
H   15.700058   68.058594    1.600097
H   70.684990    9.786348   24.211374
H   95.934837    6.037323   34.509361
H   95.908890   50.087006   34.188187
H   25.368813   57.845085    2.969607
H   98.898666   90.915955   71.230759
H   67.851471   27.542282   69.935829
H   25.932493   92.973236   65.189003
H   72.142509   54.504314   89.690956
H   50.988087   67.511383   16.243906
H    9.497499   59.363125   43.414284
H   74.386978   78.920036   42.874275
H   94.023750   27.552303   51.612694
H   51.279003   27.574203   80.639870
H   88.880836   37.630821    5.174428
H   69.166718   59.308411   81.246880
H   68.366501   17.091759    0.087837
H   65.727371   39.611408    5.211114
H   13.517988   38.931137   64.781235
H   77.088570   76.198769   41.546047
H   54.199093   82.891350    6.097155
H   37.271690   88.848717   93.815735
H   26.204716   11.345731   48.882061
H   25.209549   14.807227   15.248877
H   50.191471   90.617035   28.102991
H   90.599106   88.553131   22.872282
H   64.404564   53.474815   43.070698
H   19.747692   49.167042    1.530261
H   77.062790   70.759483   68.874016
H   56.480915   41.945099   48.373650
H   97.214828   57.936687   64.092010
H   20.717510   99.559303   67.388527
H   43.199619   33.073982    1.095860
H   24.892809   44.131695   77.201538
H    2.671212   48.228821   40.238522
H   71.970970   33.424309   31.358906
H   80.746399   54.885807   38.808949
H   99.224258    7.777018   38.687256
H   82.926773   59.066338   86.067207
H   89.338272   49.840721   97.077988
H   46.916595   29.835133   64.327950
H   60.612118   75.364594   34.994148
H   44.952209   68.276512   61.823982
H   38.420006   85.851944   90.747528
H   81.059456   98.709518   23.383354
H   53.557961   66.396423    4.365238
H   11.807580   99.678925   16.683260
H   23.551338   17.470650   13.559300
H   24.760229    4.700945   85.383957
H   68.000267   76.155045   82.380348
H   82.278275   24.864243   76.621277
H   22.002420   75.586914   92.211090
H   78.438255   87.722778    7.902337
H    1.108112    1.448414   87.701591
H   12.148359   94.630775   45.805611
H   30.662411   63.219868   34.471581
H   80.194466   35.086224   44.196621
H   32.560844   97.390099   91.656479
H   77.523727   34.609272   71.022652
H   44.432110   55.038937   64.174721
H   78.358528   40.236187   68.138481
H   77.757721   62.677570   31.346794
H   99.360764   76.063828   50.257977
H   80.616554   73.759659    8.650423
H    3.900065   82.743103   60.597263
H   61.255127   99.116035   50.401482
H   32.146072   66.032448    9.395196
H   47.219471   75.156441   55.804642
H   69.168877   74.566681   39.170013
H   28.743616   43.251869   48.716240
H   49.528427   42.394066   91.206673
H   66.533981   23.227867   85.867706
H    9.081595   17.607224   28.958170
H   12.879710   35.577988   19.691370
H   75.322517   63.201050   68.697739
H   84.296310   87.525620   31.714243
H   78.407722   44.676872   19.997326
H   67.420242   17.162819   33.881920
H    3.667600   27.188763   77.124466
H   23.464468   54.739807   83.674782
H   93.295593   56.342861   66.273064
H   20.090319   62.588627   62.122547
