100
TIME:    5.461, STEP:  5461
H   48.017006   21.220154   94.146317
H   49.655251    0.786119   22.438641
H   73.628525   66.790207   59.243053
H   82.393219    7.656551   40.827103
H   46.257370   10.480654   17.635139
H   43.337376   95.291786   19.567179
H   66.757622   30.090458   17.510393
H   90.662460   61.046787    6.782353
H   19.386131   61.240509   56.337456
H   25.605089   94.795235   21.536047
H   92.286118   85.977875   13.718685
H   47.410995   97.422554    4.209530
H   95.589249   31.353558   82.389336
H   84.685051   88.243538   72.825294
H   46.925316   82.229111   88.267029
H   81.948502   34.090103   79.730194
H   84.965919   43.172924   70.524719
H   17.847486   29.104862   10.219633
H   30.325367    7.447464   51.067623
H   45.387009   89.843544   88.142921
H   40.213234   12.557060    9.023777
H   85.931732   51.333542   54.223679
H   12.831357   50.208260   76.104401
H   11.651993    2.157686    1.491222
H   34.266632   53.075943   76.870583
H   21.652002   65.219894   76.889481
H   91.170700   15.469164    8.320141
H   71.757759   11.340706   47.285522
H   29.915474   44.556400   99.028564
H   10.392685   55.680016   17.522408
H   30.979408   11.754321   77.321999
H   10.568069    1.632581   93.711952
H   55.023556   68.929619   89.766960
H    8.841365   73.254692   41.687263
H   45.026184   46.110428   57.263741
H   47.352772   13.157467    2.257405
H    3.580359    4.541069   38.770672
H   38.278759   59.017414    7.809897
H   14.560739   62.430962   15.100870
H   48.827900    0.942239   67.695580
H   62.030945   43.562248   71.004494
H   40.816917   56.951729   59.357815
H   58.279629   96.247940   95.928169
H   30.640400    4.305536   14.683942
H   82.954094   16.429764   23.423182
H    7.631866   67.077042    5.347086
H   84.398727   21.825901   77.886330
H   56.531063   51.616501    6.473633
H   24.661095   80.169556   26.631977
H   40.411350   13.851263    1.715689
H   43.127979   42.419464   10.994720
H   70.526939   57.000141   15.556839
H   22.149120   53.673462   85.702934
H   50.225601   18.100510   72.795433
H    5.981657   37.180828   46.796810
H    0.397376    6.789281    6.721481
H   42.454994   31.972084   75.373955
H   19.418262   61.163658   72.892319
H   20.974546   69.509743   92.239113
H   98.650055   47.539379    8.286751
H    4.184301   24.610619   88.613548
H    5.095886   77.111862   48.262344
H   44.808002   34.634689   58.993286
H   18.036243   71.511520   78.874496
H   49.079941   24.682751    4.127861
H   65.868126   70.790611   69.080269
H   49.422485   37.163517   30.720066
H    3.137042   29.858290   27.269979
H   29.077490   57.393700   17.727554
H   41.024727   22.814205   90.233826
H   48.621681   23.834213   96.638527
H   23.683002   70.284958   56.451591
H   50.924179   48.181831   21.727402
H    9.992786    3.792838   78.679680
H   25.468466   36.425892   15.378819
H   54.762085   57.572777   28.473818
H   62.779339   53.223606   87.628807
H   88.548035   93.638802   16.029528
H   23.388241   37.478046   78.612251
H   31.709770   11.532018   50.451172
H   17.734987   85.778214    6.380528
H   51.074127   79.886246   30.128500
H   63.296738   98.446594   50.022289
H   25.858355   79.468552   64.638000
H   86.423409    7.295310   18.369560
H   25.605679    9.644946   21.011795
H   31.882574    6.293687   83.945023
H   43.856895   68.079834   38.955650
H   69.014511   90.112862   83.526863
H   83.513062   84.595261   19.435495
H   47.509300   68.308487   48.788128
H   82.357597    6.198990   37.580627
H   35.513992   91.376808   41.312092
H   75.051979   44.485668   95.026054
H   62.174095   60.567478   41.573307
H   44.977814   80.082977   85.381042
H   29.133554   81.076378   23.122223
H   26.910353   62.734833   68.644707
H   48.563568   60.390522   87.620842
H   78.414230   38.496090   71.665894
