100
TIME:    3.870, STEP:  3870
H   55.609772   67.122620   95.602921
H   93.618431   14.569262   22.118086
H   46.276512   52.327080   77.914955
H   82.126175   73.205986   28.034758
H   60.507812   82.955070   60.772873
H   68.012703   97.015434   62.005974
H   50.142788   22.658184   93.091972
H   15.711929   23.406384   52.864086
H   58.495949   14.208780   56.485302
H   69.083824   71.950829   59.236984
H   40.277054   21.960133   66.970619
H    8.132019   17.673487   17.458200
H   97.092209   27.567169   40.482422
H   63.461174   93.147438   51.749615
H   27.575371   24.343208   64.746864
H   45.920593   73.244682   11.797266
H   12.904841   37.940830   25.689718
H   83.838341    6.502472   65.377625
H    5.545042   40.705299   67.247345
H   88.254448   23.632494   79.820244
H   34.625427   70.947266   52.203178
H   33.401016   49.221466   89.712051
H   34.073952   63.147758   21.625095
H   59.476570   83.096252   19.652920
H   91.171295   79.249344   65.120644
H   28.911436   12.297164   26.435793
H   28.364058   81.606400   76.757607
H    6.002975   37.078217   94.692131
H   95.319809    0.208995   74.235451
H   49.385818   95.056877   91.042847
H   68.365974   69.085121    3.196861
H   10.111337   45.586380   40.998756
H   42.955219   85.334984   46.437119
H   41.618683   19.060219    8.714680
H   84.572983   66.377769   60.382912
H    9.043528   88.494293    7.328346
H   50.981918   62.808090   13.406058
H    4.039105   88.127296   95.537331
H   81.719055   97.098137   69.280540
H   98.683037   49.887260   42.517994
H   70.764755   88.973373   33.521221
H   83.807571   85.545959   84.617477
H   44.575413   86.707184   81.007500
H   32.232727   77.629425   59.121704
H   20.962172   79.200195   87.276794
H   28.159344   36.731129   98.881508
H   71.969040   35.302208   62.615166
H   56.446095   35.229706    8.031548
H   78.153061   11.936798   90.097992
H    7.042979   89.640419   12.992168
H   43.249363   96.019600   94.221481
H   93.208054    4.631797   20.003208
H   89.150093   44.448303   78.106514
H   87.073143   44.064476    2.589663
H   32.658585   97.745056   33.262531
H   98.408463    8.463278   60.882874
H   41.592495   77.879387   24.056768
H   37.887688   11.413721   13.872549
H   95.496132    2.285102   14.380733
H    3.639665   25.248991   53.538582
H    3.822822   98.600243   12.660841
H   61.560753   91.920670   20.248390
H   36.794498   43.201591   68.092949
H    8.784990   62.846344   22.069004
H   85.929619   51.754086   55.965473
H   63.604927   49.883614   75.008408
H   77.070999   82.157776   53.906170
H   13.038530   38.867203   51.210979
H   49.783546   71.712814   17.512234
H    8.792994   42.792679   93.584015
H   99.141563   32.085518   15.724518
H   54.867226   23.087555   39.965076
H   54.660446   26.880413   62.524452
H   45.018429    4.477688   73.211937
H   48.758892   34.156017   94.769814
H   17.145288   55.604431   35.527798
H   18.325518   91.120651   59.492069
H   13.799968   97.670296   28.165316
H   47.092361   42.151318   60.863815
H    9.733162   98.184776   87.517326
H   86.606491   69.318588   11.289971
H   31.695358   69.501602   63.170532
H   62.654018   71.855042   98.498383
H   16.400412   43.323555    9.952754
H   63.892471    6.812944   72.599350
H   62.227131   51.207191   10.527820
H   25.623281   21.972404    8.079912
H   18.250193   95.452858   55.496300
H   35.998154   78.696983   96.539192
H   24.178297   50.054619   62.558136
H   82.398926   82.400017   15.189126
H   64.637238   86.547417    7.267324
H   33.527901   43.636871   18.277567
H   21.277676   47.977402   87.752708
H   89.679634    3.077807    5.016112
H   13.567763   42.908699   67.558372
H   55.419830   89.772118   14.621717
H   21.071798   49.188416   94.111000
H   24.355370   53.532345   20.883545
H   79.591133   79.321968   24.930334
