100
TIME:    7.092, STEP:  7092
H   37.718826   71.650490   92.653091
H    4.613294   89.168648   25.278145
H    1.675615   84.131142   40.092442
H   82.666977   40.460724   51.426960
H   31.648500   41.212414   73.412201
H   18.039654   93.524803   81.091019
H   81.277908   40.223843   45.056789
H   62.469078    2.150791   57.030769
H   79.292976    4.426452   53.671604
H   81.051857   18.215609   85.398232
H   40.574463   51.604511   56.611481
H   85.158951   79.176025   88.113106
H   91.516335   32.715168   20.323368
H    3.928159   83.216347   96.943581
H   66.745430   36.540428    9.849209
H   16.369549   91.436646   44.343262
H   53.810677   51.050594   19.001093
H   52.726734   49.742249   53.679558
H   55.723049   75.872330   36.995609
H    1.448860   55.203884   99.188988
H   43.427383   50.186897   64.750938
H   42.297287   53.498718   15.328934
H   91.053780   36.943443   29.440775
H   60.109749   21.669161   80.360428
H   75.933907   23.728775   88.915932
H   14.167904   17.029076   23.493792
H   50.528324   47.671761   40.685055
H   34.139587   87.470299    1.195015
H   65.379570   92.533974   21.929190
H   72.932053   15.313110   47.181969
H   95.169502   58.008202   48.282539
H   13.550364   56.564526   42.722084
H   69.908943   49.597618   36.700325
H   77.755470   23.783127   72.976776
H    4.455367   22.706093   56.535759
H   89.133354   40.904968   97.129524
H   60.013275   44.811646   67.287201
H   70.865486   29.165356   22.904442
H   45.717640   26.893099   57.044724
H   95.206520   48.254391   96.018051
H   50.563370   99.528755    9.429455
H    2.538735   69.414429   42.018993
H   72.321014    6.030724   13.737156
H   26.495708   31.681540   74.153191
H   41.477226   52.076511   62.991768
H   86.580101   98.185898   11.973272
H   97.140915   10.524808   93.540306
H   56.620480   68.415283    7.390535
H   72.334480   45.090038   61.573402
H   74.637451   38.678211   87.659492
H   43.014622   84.956467   28.186378
H   49.799755    5.653413    8.491101
H   55.983112   63.130554   90.976357
H   12.459450   91.489609   44.766129
H   76.119186   80.114220   60.671360
H    2.428837    5.073627   51.198380
H   45.853199   84.909615   30.495766
H   97.971115    7.135273   30.882753
H   49.607307   38.428295   67.031868
H   91.020348   72.903534   61.897240
H    7.069056   48.759964   61.446678
H   47.208992   61.930740   74.464539
H   55.537327   23.337811   47.150726
H   30.034233   80.396210   34.592106
H   13.815635   94.417786   56.016193
H   65.674683   89.709099   65.518234
H   18.564104   93.551727    9.463534
H   90.472679   23.136671    5.241210
H   10.365358   40.200439   15.434051
H   74.066124    4.848053   86.799408
H   96.828575   12.862170   77.077278
H   89.250008   16.127941   75.888649
H   44.579880   67.510895   79.910706
H   74.084099    0.567344   81.771301
H    4.100842   38.757771   39.021824
H   93.315163   62.104900   18.728136
H   10.887609   11.969433   16.518999
H   65.175385   86.991951    6.103217
H    1.601686   32.687283   96.804710
H   51.726425   22.684872    9.939031
H   49.652672    2.652268    3.861763
H   73.473976   90.463394   93.687813
H   66.461388   25.721350    5.348861
H   38.067883   19.036896   15.673031
H    7.008009    5.274957   60.262505
H   88.067795   69.557129   34.273331
H   40.813435   87.706291   61.717293
H   70.087883   37.564861   22.044876
H    2.861340   99.301567   70.187386
H   39.310688   17.491055   77.737762
H   14.256611   56.378067   83.231857
H    3.035082   28.865196   68.654015
H   40.064274   40.315014   67.439827
H   32.681190   43.436241    5.001667
H   33.977028   14.470985   79.053253
H   79.691696   15.676763    1.137715
H   99.673119   74.675110   29.322086
H   24.588121   37.371563   36.509987
H   70.866570   67.427177   51.008633
H   79.722160   96.642990   14.545024
