100
TIME:    8.353, STEP:  8353
H   52.442619   56.011162   91.498611
H   69.787033   57.502293    4.787941
H   23.351328   74.852356   25.288418
H   82.878632   88.506157   82.306709
H   20.349028   42.287037   39.220352
H   98.483521   92.158669    5.971232
H   15.189841   25.372263   43.668644
H   63.356964   11.243146   41.249367
H   48.295189   83.185715   74.296448
H   46.609871   36.321705   34.774452
H   23.279312    2.343831   35.146469
H   37.030983   42.383205   98.353905
H   11.106657   56.389389   95.009155
H   41.490211   79.329597   92.906502
H   82.061531   23.901688   49.204285
H   65.667221   81.144981   39.669220
H   52.408485   34.456661   33.794899
H   79.687866   88.382118    9.970776
H   75.364395   28.771809    3.431558
H   67.469070   28.428926   85.043709
H   68.597862   24.649632   30.529810
H   63.190586   55.172714    7.943131
H   74.217613   26.690306   93.360413
H   42.943901   36.754364   86.707611
H   30.832348   23.725403   98.228737
H    8.222319   79.857040    4.827308
H   41.790512   95.251968   65.707748
H   27.740110   46.329502   42.878662
H   92.798470    6.941748   62.321159
H   21.284153   84.102493   47.427856
H   44.799221   71.084648   48.516304
H   93.170921   21.728092   25.984993
H   58.731991   57.336998   50.301163
H   31.036808    8.220110   19.852556
H   73.072563   27.230675   33.255650
H   98.750092   39.673058   93.165810
H   80.960075   98.629158   66.649071
H   18.747845    6.086411   11.889991
H   92.488426   99.421165   34.844215
H   76.433685   30.203176   95.231018
H   64.383118   42.793182   39.137539
H   96.268448   74.359451    6.396641
H   83.173126   13.594973    4.820004
H   45.976147   52.849403   97.447662
H   32.095222    2.327979   70.899956
H   70.301933   22.233440   17.096277
H    6.996744   79.102425    5.646661
H   56.697445   81.403183   85.413872
H    9.198723   40.654320   11.268694
H    1.113217   57.871441   99.490135
H   42.928036   63.215294   41.480759
H   11.084270   88.642502   25.714294
H   82.135033   70.442261   17.742907
H   83.255219   70.920624    0.412031
H   75.716469   90.621719   71.391769
H    3.999410    3.747178    8.270966
H   25.796104   48.524254   50.427299
H    4.074536   88.049217   98.399925
H   49.058727   91.712166   70.227127
H    7.807845   69.828400   26.031395
H   86.613968   90.118408   63.129185
H    2.453630   50.193527   17.407360
H   41.145885   37.289703   60.680176
H   16.624928   87.265366    0.352999
H   63.870216   93.703491   73.447357
H   88.211037   27.020836   40.078907
H   17.391668   37.147251   70.344894
H    3.366816   95.253777   65.524307
H   73.215546   49.593025   36.347374
H   99.669823   68.192337   84.127029
H   56.785625   27.062572   61.953590
H   85.417984   74.247459   68.316513
H   62.359985    5.138634   47.580250
H   46.324986   20.758869    6.847147
H   64.843521   40.614559   34.631626
H   23.126406   42.922043   33.878700
H   25.413616    2.826275   38.883720
H   24.416983    4.542034   75.748535
H   62.068047   28.983326   10.875740
H   89.886772   53.992149    1.302887
H   74.339043   15.697976   79.230331
H   68.097672   98.640961   88.192039
H   46.220642   46.809849   25.440464
H   24.822800   26.943720    0.500533
H   45.608917   26.390598   38.023262
H   59.050220   15.872668   21.841049
H   25.032839   96.021004   21.846581
H   90.368248   36.658646    8.970390
H   29.034126   29.090143   59.874031
H   27.821123   65.613174   22.817122
H   65.861870   24.469151    9.862205
H   96.336311   23.704689   92.686440
H   20.896748   78.149498   64.954895
H   54.550201   19.939686   90.028786
H   12.172222    1.517951    8.030029
H   83.845123   65.881104   36.005760
H   99.580864   47.040169   56.800087
H   22.154093   99.767097   11.194059
H   10.795337   72.872475   45.386631
H   58.046963   64.279068   93.068787
