100
TIME:    5.232, STEP:  5232
H   63.503578   42.220222   94.355972
H   55.979866   88.377899    7.999473
H   69.690491   50.314758   61.931889
H   82.354782   17.091934   53.380241
H   48.308502   92.125381   23.843571
H   46.889294   95.539879   96.888359
H   78.760414   14.626637   99.602219
H    8.661415   41.236065   27.808887
H   25.015388   83.257858   70.752220
H   31.862440   91.507133   12.568022
H   13.587128   76.763504   35.776943
H   56.151894   85.943901   20.509443
H   10.202225   45.201363    5.144015
H   96.023933   88.949379   55.398544
H   44.140388    2.684436   99.273956
H   91.155884   54.119217   98.738983
H    3.380741   28.027042   49.677948
H   12.950549   40.246548   18.157724
H   26.758598   97.840546   39.003681
H   51.556129   94.707558   72.551521
H   53.802422   35.355377   15.239197
H   63.977280   51.029541   73.725159
H   15.889274   52.070702   82.656143
H   32.929470   99.418182   18.498962
H   42.457184   71.236679   75.179359
H   22.695913   71.988281   98.424622
H   10.917276   24.988434    3.776087
H   91.081032    0.651790   39.715202
H   24.936150   23.779860    9.853146
H    1.612070   61.347710   99.318062
H   21.966831   91.219284   95.439751
H   96.109016    7.959162   14.911568
H   38.892292   85.684608   69.136833
H   99.165344   94.241234   51.334923
H   50.718338   63.421005   43.319885
H   27.446157   95.221001    2.977604
H   81.615601   12.928173   20.726299
H   47.742970   63.208782   91.649666
H   24.227551   67.420769   37.292267
H   70.396751   22.380718   49.677769
H   77.681747   35.705399   65.609352
H   61.398125   46.673355   48.600727
H   56.307117   94.874695   79.386330
H   45.262142    0.461683   92.293503
H    2.818850   25.464180    3.826484
H   10.586964   62.709217    4.416514
H   82.609665    9.371476   75.688438
H   56.518833   49.257874   92.304466
H   17.967834   99.136414   35.767212
H   35.608486   10.365736   17.731712
H   43.145451   64.527664    8.580621
H   59.397713   78.249329   30.590904
H   17.398670   52.345642   99.002098
H   55.528145   21.837624   62.690025
H   24.215569   17.112177   44.848759
H    0.112135    7.030167   14.517181
H   27.938080   38.579735   53.594215
H   36.469620   82.789650   78.790634
H    2.914274   59.833954    9.819118
H   13.761543   29.937031   14.800056
H   89.738892   35.259991    6.468753
H   13.222746   79.243362   58.624580
H   29.260435   50.261032   74.696503
H    2.311108   70.264069   85.090790
H   39.989616   42.973118   82.802208
H   79.936028   82.174919   55.540001
H   67.795319   29.246960   19.663345
H   18.955925   16.760920   16.322454
H   17.663481   73.848183   32.090721
H   36.386093   11.296062   90.716034
H   55.893242   39.415131   99.385017
H   42.564636   77.884979   39.684372
H   65.855164   59.508484   27.599510
H   15.033260   18.286102   92.286339
H   14.427531   36.099178   98.018646
H   49.347725   42.895126   43.881969
H   41.986729   73.071968   83.578957
H   77.789200    8.612309    3.382405
H   12.407378   38.150692   76.057945
H   42.938560   24.006378   70.179779
H   13.253862   83.409103   92.693733
H   33.889114   78.396500   49.281151
H   48.811272   94.616882   28.212851
H   10.103598   59.872726   85.554657
H   97.573601   21.619774   40.568611
H   30.876774    1.233382    5.109107
H   16.588186   22.943909   73.025452
H   40.172440   86.408417   41.333046
H   64.262314    2.863304   85.399788
H    3.759047   94.015793   11.249565
H   38.137688   55.943432   43.952068
H   65.413918   88.975998   33.218040
H   20.834597   84.507088   23.603168
H   52.920197   30.592482   79.584908
H   66.133095   81.079094   36.310947
H   26.063370   89.126129   97.209122
H   47.310570   67.934456   36.292099
H   26.069983   60.785034   72.310188
H   59.472656   59.403393    6.801453
H   64.189087   44.371693   93.725174
