100
TIME:    2.596, STEP:  2596
H   41.765045   83.954948   96.769302
H   29.057838   45.496254   41.754841
H   24.377691   60.670578   92.864082
H   81.912338   25.695543   97.866882
H   71.918915   80.838364   95.317215
H   87.763435   98.395653   35.836323
H   16.914455   36.632217   93.463432
H   15.845818   13.189493   69.838661
H   89.813301   36.698654   36.677952
H    3.899775   53.658073    9.345004
H   58.781433   70.698257   89.689606
H   56.760422   53.814682    8.143255
H   78.130180    4.645691   67.106865
H   26.542381   97.074257   54.797764
H   12.077072   38.141754   25.984480
H   97.144196   84.673370   17.550863
H   15.352405   53.674866    9.712472
H   56.620132   68.457130    9.545670
H   85.698784   87.258347    0.131211
H   22.578552   50.684338   93.080421
H   10.226303   97.776703   86.783081
H   11.261398   47.530212   98.204926
H   51.083687   73.509117   58.075912
H   77.844971   67.816650   14.271667
H   36.735344   80.286743   55.715408
H   34.755634   50.255459   45.848320
H   38.222763   34.564129   51.481190
H   13.499289   77.612221   52.583111
H   67.618240   84.621590   34.457176
H    0.536263   26.589279   89.763481
H   18.223455   54.843220    3.991691
H   29.670082   80.786583   58.939339
H   53.217060   78.546761   31.665136
H   87.787987   35.814774   62.385574
H   16.241760   62.682434   82.806633
H   98.266068   88.413994   11.715974
H   28.789516    9.464304   13.019845
H   56.692078   11.439877    5.634796
H   35.495087   24.853670   92.740860
H   18.679594   69.155190   42.282230
H   57.831890   45.257664    3.505929
H   98.307457   28.367752   24.763239
H   33.601704   79.067383   88.985313
H   13.587168   56.281120   34.557312
H   31.472162   29.466290   78.257545
H   44.595608   12.431507   93.710548
H   62.013981   66.016998   50.377876
H   56.378056   22.111574   29.203667
H   40.912628   17.449139   40.918846
H   80.330284   70.259041    2.097959
H   43.346561   19.016539   80.788651
H   31.292677   22.849411    3.638294
H   62.731079   37.061218   52.098770
H   16.577145   64.854836   46.370270
H   34.092865   86.084442   22.433668
H   96.814407    9.803679    4.252838
H   60.825466   14.640756    2.888575
H   32.753021   31.727787   46.689285
H   95.018501   48.456432   12.186510
H   87.709732   27.325094   89.774178
H   23.458475   57.844341   11.991864
H    6.776760    3.779646   77.894470
H   50.318417   30.125971   55.462570
H   21.301626   55.916092   56.661945
H   35.361462   53.506504   37.321510
H   41.868752   13.218025   99.681129
H   79.286385   38.113132   92.396561
H    1.042150   66.005188   90.306412
H   86.286369   63.254326   97.415047
H   82.978821   78.714912   96.266693
H   39.598457   18.767759   31.008980
H   59.914139   65.368896   46.689087
H   37.728058   89.898186   95.183586
H   73.061577   85.099686   48.920555
H   87.335106   32.338406   98.191879
H   87.028709   73.952873   21.252064
H    2.654517    1.542443   36.961460
H   53.945126   80.975090   57.808758
H   86.000366   45.893459   46.643677
H   72.212593   67.571808   97.273575
H   61.683895   56.138470   35.145069
H   36.104691   61.181412   69.701515
H   82.049942   50.588013   77.156097
H   28.751637   34.304657   26.313873
H   25.926067   86.502960   96.099449
H   91.542786    4.408985   22.057491
H   40.535698   14.602585   47.330658
H   97.745636   97.452545   68.747932
H    9.556633   49.630760    6.961253
H   36.817127    2.467087   17.019047
H   30.261658   13.608750   88.284500
H   70.368790   90.742485   82.988152
H   51.848148    5.419291   19.748886
H   98.140419   70.700493    1.854103
H   11.706982   17.195351   75.740349
H    8.340590   93.218636   33.362335
H   56.543961   16.659420   87.891045
H   16.396551   38.341064   14.498081
H   85.046104   48.040630   27.595680
H    0.461658   12.022871   47.653961
