100
TIME:    9.415, STEP:  9415
H   80.624176   58.621193   90.526321
H   40.456284   15.048294   71.751884
H   41.606075   51.256477   12.822332
H   83.056885   44.753105   24.093943
H   10.832739   27.410751   10.427006
H   82.019409   91.008125   11.144519
H   59.528400   97.083015   26.718441
H   79.885864    3.119787   43.740097
H   22.189201   81.078033    7.446134
H   17.601206   51.570454   76.356056
H   24.494659   45.073929   32.846809
H   96.495293   95.616081   22.758850
H   43.386414   92.111427   89.470825
H   88.907379   76.056221   73.726402
H   94.960579   29.038612   98.134300
H   22.966625   88.258530   51.513733
H   67.008705    4.700763   30.472944
H    2.401078   36.704903   73.154861
H   91.909531   73.325302   59.378826
H   38.858456    5.875849   57.349571
H    5.576927   18.924505    1.704522
H   65.005569   56.582535   17.504028
H   60.038383   18.057180   62.976349
H   44.268810   49.458954    7.833947
H   92.850693   39.504234    6.068935
H    3.212920   48.549301    4.888134
H   50.213478   51.107632   86.774033
H   38.131340   95.900085   77.983208
H   15.891482    3.294741   12.120190
H   62.005836   57.818253   31.853592
H   86.595207   66.316101   64.494263
H   60.226154   92.386307   27.670341
H   33.537270   79.636398   45.974510
H   75.908081   10.894089   75.112663
H   46.642479   46.822365   97.868179
H   91.067627   22.855978   89.827614
H   82.819763   59.737556   50.330463
H   74.851387   86.654808   86.831718
H   47.662899   76.280663   31.928562
H   76.405151   30.782257   78.787796
H   91.803345   79.233139   64.157799
H    6.768940   78.524094   60.611797
H   92.312653   19.966759   81.527733
H   78.169716   70.679787    1.283178
H   39.974358   60.437366   61.781010
H   56.597023   42.487530   21.410814
H   15.299811   36.859409   15.845354
H   56.762264   92.341446   51.124012
H   40.239082   52.699200   68.907684
H   23.404318   74.040794   25.235725
H   43.705723   60.751091   51.372040
H   62.698116   90.096893   55.999977
H    4.158478   76.600098   56.065208
H   58.658043   53.592789   47.273689
H   91.158211   83.690598   80.417862
H    5.322130    2.630057   72.117966
H   93.122589   17.880913   51.432335
H   24.995417   87.756279   71.046165
H   32.820034   36.587242   88.695839
H   37.725658   51.457172   95.825600
H   53.608822   40.729893   80.332497
H   64.761162   40.308578   69.357918
H   13.244594   64.820335   87.855652
H   89.551086   93.050491   71.524506
H    6.019625    8.882122   72.346519
H   22.970936   74.226097    2.872718
H   32.185898   73.861481   21.618576
H   30.007446   55.991524   16.294052
H   26.144045   73.284485   69.741547
H   21.238739   21.535982   81.874557
H   23.056339   54.802303   49.216591
H   97.965294   38.985741   46.161068
H   93.116379   52.604809   20.348026
H   22.949512   53.543842   43.745857
H   16.000925   42.178326   15.153088
H   48.235794   10.985538   62.417953
H   21.865730   10.907551   57.721840
H   74.305855   35.104317   34.405418
H   12.997865   25.863895   22.728701
H   37.804436   96.139076    9.810555
H   95.129845   26.684855   42.705147
H   47.789513    5.533704   99.345390
H   13.392740   64.570351   26.579967
H   97.886452   17.821098    3.503276
H   93.899292   59.954033   35.074905
H   34.605228   54.884132   95.589249
H   95.961403   18.804970   72.486687
H    7.447611   51.678810   97.960648
H   51.073246   69.960182   51.188240
H   33.926189   21.917137   60.777924
H    9.323624   81.812469   32.289696
H   74.913559    3.577778   12.921411
H   88.973251   10.010695   47.080986
H   56.336952   84.304733   62.942806
H   93.809875    6.390570   32.431190
H   71.561981   23.943773   81.151810
H   15.284104    7.986284   95.722473
H   20.104181   52.313648   89.870628
H   60.204124   77.458443   56.433491
H   24.013657   37.030560   90.762894
