100
TIME:    0.241, STEP:   241
H    1.025020   99.920479   98.925369
H   94.566338   17.811375   93.202759
H   83.905151   91.242622   20.510132
H   81.517059   22.721239   26.952883
H   93.012436   92.074738   59.170662
H   24.279209    0.951352    2.612076
H   40.339542   77.611610    9.299125
H    0.944171    9.452129   86.066216
H   47.703758   63.122223   84.917168
H   68.254448   19.846989   17.126421
H   77.837799   75.939728   16.535473
H   46.643208   35.770622   75.774544
H   27.932724   47.126617    1.175926
H   43.149052    4.334208   75.580803
H   83.434013   48.495117   39.187840
H   91.833511   90.657539   13.034565
H    4.690382   97.934822   95.297523
H    6.294729   82.980728   91.191208
H   49.017052   88.463089   76.058731
H   86.125740    0.478880   32.629524
H   49.975266   32.225159   50.700691
H   85.456398   44.418030   98.734322
H   82.526329   92.662178   25.455334
H   96.649994   39.572178   89.175934
H   20.963652   67.061119   38.338028
H   45.552860   20.429539   66.583275
H   41.297131   32.458584    4.748598
H   12.206284   67.688248   74.741684
H   16.411652   70.957420   45.779663
H   10.234906   84.874954    2.547829
H   25.582003   43.654076   90.341270
H   80.974304   45.852036   76.953514
H   87.333557   50.849297   19.508139
H   88.284782   51.636444   61.598274
H   74.781395   40.702499   39.403336
H   93.508812    3.417326   19.815084
H    2.914445   95.709328   27.455029
H   54.027901   54.543247   39.447742
H   39.886028   75.363350   19.027657
H   40.493900   89.621513   56.996323
H   18.772350   64.447807   48.017208
H    9.961472   22.673204   14.122640
H   13.317304   64.945145   18.881096
H   63.969940   16.810587    4.295643
H   35.750656   22.383194   76.730408
H   74.873482   67.734673   84.263374
H   38.624805   38.741695   29.682562
H   56.252285   97.863861   83.489670
H   72.072685   12.490116   34.860237
H   30.944326   34.417568   66.807877
H   43.526173   46.376869   55.958004
H   16.845098   41.375992   58.241928
H   13.878393   23.406128   88.873177
H   71.105331    3.269921   42.450581
H   21.573242   79.632523    2.451156
H   93.867783   12.278782   84.422592
H   11.530857   82.592888   78.908501
H    8.114016   54.127205    7.347187
H    9.284798   48.951736   92.981659
H   43.114616   46.312447   56.754913
H   74.903061   67.361679   95.606018
H   90.357574   25.702164   84.450394
H   90.579674   90.718803   17.024628
H   59.589424   43.105461   20.597181
H   41.887848   41.596020   18.004702
H   86.540443   30.292316   60.435665
H   68.232719   56.692837   78.697556
H   63.718254   31.320801   77.723793
H   68.915154   32.469597   45.117985
H   35.268692   60.266670    1.223978
H   14.379549   79.006783   59.256992
H   54.094814   43.527245   74.267250
H   91.277740    6.386806   55.569927
H   24.886360   34.128544   88.885262
H   73.790329   28.986612   19.667397
H   31.355719   23.018023   79.712936
H   88.836212    5.655845   95.297180
H   43.302948   34.962193   27.749447
H   73.105507   52.795124   20.375690
H   87.706375   95.828606    0.158905
H   15.598005   31.774832   94.392960
H   59.406384   45.801468   66.628479
H   33.044941   11.279923   52.853882
H   66.749542   32.784275   41.417488
H   40.595367   33.809288   24.390102
H   45.747868   17.905058   58.519398
H   83.250557   85.830254   35.034985
H   59.834793   85.999077   93.233513
H   60.684517   80.753883   26.229115
H   45.027901   99.370880   32.827145
H   33.885288   86.444717   38.551220
H   96.118187   13.631800   38.116394
H    0.747512   34.852440   37.559471
H   70.522041   27.850641   43.067806
H   52.425190   28.142246   21.624794
H   13.827240   86.214653   55.000999
H   43.472649   81.510963   23.328850
H    7.750096   18.289642   52.179344
H   97.231529   37.889149   24.864559
H   54.208416   72.513313   74.474228
