100
TIME:    0.249, STEP:   249
H    0.484025   99.186836   98.918045
H   94.343803   18.245121   93.707397
H   84.042603   91.818184   20.416199
H   81.518402   22.391619   26.514376
H   92.940781   92.715973   58.953743
H   24.155155    0.942645    3.404358
H   39.920292   78.151772    9.924750
H    0.315385   10.144222   85.331718
H   47.507103   62.353058   84.413628
H   68.035820   19.961826   17.439714
H   77.093658   76.261627   15.764874
H   46.337849   36.171623   75.205086
H   27.423843   46.642609    0.380802
H   42.752934    4.309543   76.189568
H   83.531303   47.780579   38.803257
H   91.511856   89.957832   12.370502
H    4.047216   98.463875   96.025917
H    6.465681   82.591690   90.913864
H   49.141624   88.798660   76.480240
H   85.909187    0.311125   33.175301
H   49.500534   31.428711   50.483589
H   86.223488   44.428589   98.053169
H   82.419518   92.597115   25.226421
H   95.906708   39.668125   88.581818
H   20.677549   66.426720   38.397110
H   45.516361   20.190983   65.833519
H   40.607250   32.126003    4.907342
H   11.531296   68.061661   75.006088
H   16.585602   71.683250   45.401489
H   10.541654   84.676956    3.183789
H   25.896700   44.371483   89.708214
H   81.479431   45.631027   76.212914
H   87.897034   50.263969   20.228842
H   88.622795   50.903290   61.261238
H   74.582542   40.097763   39.890457
H   94.204369    4.045774   19.787558
H    3.681744   95.416359   28.085400
H   53.697273   54.396824   40.012257
H   39.526348   75.192574   18.260872
H   39.740421   88.872612   57.625778
H   18.225658   64.722343   48.205746
H    9.242477   23.032274   14.498479
H   13.386197   64.993118   19.458946
H   63.459076   16.944651    5.077839
H   35.056747   22.067551   77.414978
H   74.771309   67.885063   84.294746
H   38.709278   39.173275   29.750921
H   56.252712   97.946259   83.984665
H   72.306572   11.827579   34.541084
H   31.112112   34.539333   66.248306
H   43.525623   45.604469   56.042301
H   17.233862   40.633621   57.716721
H   14.044333   23.452515   88.408577
H   70.920151    3.139382   42.803608
H   20.936340   80.333817    2.519038
H   93.877792   12.270359   84.150253
H   12.038013   82.362053   79.669365
H    7.518291   53.371712    7.141117
H    9.915718   49.289749   92.367523
H   42.586678   46.927399   56.527428
H   75.407700   66.989609   94.982239
H   90.073639   25.627701   84.088455
H   91.122276   90.173271   16.475800
H   60.138802   43.148979   20.379957
H   42.205414   40.957043   18.749727
H   86.048988   29.894611   60.908688
H   67.590874   56.969387   79.083786
H   63.165642   31.778351   78.106239
H   69.313835   31.894768   44.616215
H   35.430740   60.669075    1.207155
H   14.125490   78.462471   59.161045
H   53.435207   43.261742   74.852943
H   90.756134    5.991116   55.364788
H   24.710274   33.622257   88.409798
H   74.176071   28.997995   20.273872
H   31.544867   23.530748   79.174606
H   89.562531    4.962463   95.438782
H   43.678802   34.439060   28.191280
H   73.488930   52.771748   20.464893
H   87.314041   95.392937   99.469696
H   15.754545   31.857626   94.871109
H   60.006664   45.853714   65.959534
H   33.551105   11.413453   53.615845
H   67.299835   33.468845   40.686775
H   40.205841   33.308861   23.614590
H   45.563541   18.199095   59.074879
H   83.784859   85.248589   35.416454
H   59.963577   85.358574   93.150383
H   60.850533   80.308449   26.163654
H   44.320625   99.041656   33.113155
H   34.212681   86.876724   38.720165
H   96.710106   14.233454   38.268799
H    1.260789   35.092125   38.178368
H   71.295235   28.335901   43.607174
H   52.286884   27.425632   21.808601
H   14.488007   85.898735   54.587791
H   42.837639   81.970070   22.868767
H    7.779462   18.357758   52.051353
H   96.850426   37.923634   24.194454
H   54.705242   72.307869   73.703720
