100
TIME:    0.556, STEP:   556
H   79.722572   71.033302   98.636978
H   85.804054   34.890339   13.072536
H   89.317291   13.904969   16.811516
H   81.569931    9.742437    9.686446
H   90.191010   17.323372   50.629478
H   19.394585    0.608512   33.807911
H   23.830959   98.880455   33.932697
H   76.185791   36.702831   57.144821
H   39.960457   32.836349   65.090279
H   59.645973   24.368721   29.462351
H   48.537262   88.614517   86.192589
H   34.619701   51.560036   53.352135
H    7.895791   28.068771   69.866325
H   27.551899    3.362991   99.550911
H   87.264809   20.359663   24.045534
H   79.168335   63.106495   86.887192
H   79.364983   18.766159   23.977335
H   13.025733   67.662354   80.270798
H   53.922104    1.676476   92.655640
H   77.598976   93.874634   54.119469
H   31.282715    0.865082   42.152298
H   15.660871   44.833794   71.913948
H   78.320625   90.100304   16.441910
H   67.383102   43.350101   65.782608
H    9.698374   42.079533   40.664383
H   44.109577   11.042855   37.059563
H   14.133883   19.364384   10.999319
H   85.627251   82.391388   85.152603
H   23.260941   99.536980   30.889160
H   22.312773   77.078781   27.588646
H   37.973209   71.901985   65.414665
H    0.863635   37.149834   47.792366
H    9.521217   27.802259   47.885826
H    1.594101   22.768494   48.327477
H   66.951576   16.891006   58.583748
H   20.897247   28.162485   18.731215
H   33.126926   84.173683   52.275890
H   41.009445   48.777828   61.675488
H   25.724155   68.639030   88.836655
H   10.824806   60.133205   81.779411
H   97.246048   75.257668   55.440876
H   81.651054   36.811577   28.921835
H   16.029989   66.834106   41.633446
H   43.854660   22.089346   35.094734
H    8.426964    9.955031    3.685533
H   70.850426   73.656303   85.498650
H   41.950916   55.735142   32.374214
H   56.269108    1.107890    2.980079
H   81.281975   86.401413   22.294523
H   37.550884   39.212070   44.776894
H   43.502201   15.965330   59.279255
H   32.152672   12.145966   37.561882
H   20.412661   25.232605   70.579567
H   63.813778   98.130592   56.351032
H   96.495926    7.246358    5.124094
H   94.261917   11.947615   73.699249
H   31.499672   73.503761    8.867693
H   84.657898   24.379662   99.233231
H   34.127289   62.260986   68.800064
H   22.328781   70.524658   47.795616
H   94.773209   52.713264   71.044708
H   79.177612   22.770187   70.199066
H   11.945648   69.238472   95.414162
H   81.219246   44.818985   12.043982
H   54.392006   16.437042   47.340714
H   67.189400   14.632679   79.060921
H   42.960045   67.582794   93.905380
H   41.959145   49.335678   92.782616
H   84.613243    9.835701   25.360790
H   41.649345   76.109520    0.561580
H    4.376091   57.573795   55.479069
H   28.122610   33.073067   97.328926
H   70.739487   90.805061   47.492573
H   17.952957   14.194527   70.163872
H   88.978928   29.434820   43.546803
H   38.803417   43.207268   58.516811
H   17.435810   78.354607    0.872448
H   58.102219   14.364887   45.146641
H   88.202782   51.873875   23.888054
H   72.258224   78.674141   73.021301
H   21.762325   35.033733   13.219641
H   83.040504   47.858658   40.286591
H   52.975170   16.537592   82.856171
H   88.417328   59.739231   12.645668
H   25.257238   14.105023   93.854591
H   38.496136   29.476654   80.393517
H    4.288717   62.927193   50.055355
H   64.905670   60.779274   89.960274
H   67.221382   63.214897   23.651619
H   17.178291   86.407700   44.088818
H   46.776371    3.454695   45.203442
H   19.425325   37.322197   44.117332
H   20.957741   44.290039   61.928520
H    0.966592   46.958694   64.305443
H   46.979404   99.925659   28.862209
H   39.844925   73.775383   38.730934
H   18.469790   99.588280    5.212769
H    8.906600   20.971680   47.139709
H   82.225578   39.246990   98.478951
H   73.770950   64.423943   44.135483
