100
TIME:    4.730, STEP:  4730
H   97.452309   88.256294   94.815567
H   69.844307   61.177155   76.348145
H   61.059074   14.199214   67.823708
H   82.270523   37.775078   80.896126
H   52.804871   51.887863   37.454086
H   54.675594   96.083733   47.174236
H    5.071745   80.730179   60.345165
H   48.117622   97.807709   73.901588
H   37.355507   31.523270    2.349571
H   45.581322   84.299156   92.910400
H   60.281952   56.564320   84.131729
H   75.310905   60.781090   56.242317
H   42.235977   75.557594   55.025391
H   20.879330   90.496681   17.194735
H   38.035439   47.524536   23.405045
H   11.340691   98.025833   40.410095
H   43.748726   94.824112    3.978910
H    2.215921   64.670280   35.559521
H   18.939743   76.783447   12.557833
H   65.080009    5.369173   38.372993
H   83.591820   85.330841   28.864265
H   15.850052   50.363129   16.475052
H   22.591713   56.153435   97.018478
H   79.573227   93.410583   55.782890
H   60.412018   11.046310   71.471962
H   24.984312   86.825531   45.630192
H   54.206337   45.857220   93.816933
H   33.438404   77.220123   23.120005
H   14.020600   78.234703   33.581764
H   82.362808   73.772087   59.409920
H    2.209357   46.203495   35.156395
H   64.412300   21.827988   61.384254
H    3.531512   22.412817   23.912710
H   77.955048   40.246399   72.483940
H   63.196335    1.368244   12.753006
H   83.808670   55.902668    4.556710
H   33.467819   31.313877   81.170883
H   68.490669   72.393349   56.223415
H   45.418697   78.359123   85.940369
H   17.680655   69.377281   10.180490
H   11.989933   18.482084   53.782452
H    6.515216   24.142393   25.019686
H   51.983097   91.864349   43.126511
H   77.316635   92.037994   43.209816
H   46.362904   45.268883   60.869526
H   17.064220   53.134327    2.375817
H   78.687790   82.071007   70.870354
H   56.492023   44.087433   61.243523
H    3.295120   40.710735   55.794052
H   25.079937    2.724974   52.840919
H   43.183750   12.992420    3.288578
H   35.000893   24.830355   63.547676
H    6.985802   49.434875   28.157598
H   67.153099   30.029900   40.537560
H   64.185364   73.115486   40.578358
H   99.484512    7.558222   31.606445
H   96.114029   53.064629    5.849780
H   73.849991   30.197824   91.720566
H   63.320526   38.623657   48.358864
H   46.886898   91.351166   29.078133
H   58.072815   58.603573   45.607307
H   31.037786   83.915909   81.337128
H   95.179817   84.516159    9.120171
H   67.841347   67.529480   98.717773
H   20.063501   83.067108   36.053761
H   10.774193    7.130644   25.857840
H    8.071447   11.891740   95.425949
H   53.632347   88.050552   92.323952
H   92.643997    9.918686   63.576790
H   26.216471   86.047852   91.773102
H   71.833519   73.570679    5.407113
H   83.956818   94.545288    2.929790
H   98.585968   84.341225   40.471992
H   26.082684   50.056416   22.112740
H   90.223763   35.382977   59.964199
H   37.478691   10.720934   77.659897
H   96.408005   16.581020   74.701118
H   54.204327   41.437496   75.660805
H   88.333870   39.625225   70.458549
H   67.557037   51.348591   13.427418
H    3.430760   78.215683   62.689861
H   96.222267   75.118057   91.257469
H   17.057108   86.221619   80.405396
H   75.565613   16.915266   31.404533
H   22.017603   53.021584   89.232033
H   42.431751   82.795845   70.248734
H   83.060722   59.443390   49.088226
H   32.091232   26.599051   46.553276
H   53.844833   30.812849   89.505501
H   48.143452   14.669640   93.303986
H   17.593803   28.838608   33.350750
H   28.270998   51.220291   23.654638
H   88.655769   69.443764   84.782700
H    4.399623    0.141595   45.737820
H   74.811775   26.044914   24.776318
H   84.600174    8.949404   23.138512
H   87.157433   39.125530   65.162308
H   24.227774   56.510803   80.345436
H   83.386902   57.239468   48.850540
H   33.009388   57.251835   42.084583
