100
TIME:    9.883, STEP:  9883
H   48.974762   15.703774   90.097855
H   27.531487   40.409924    1.259047
H   49.650539   84.926826    7.328138
H   83.135437   25.471495   98.440933
H    6.639120   64.923019   97.737999
H   74.764038   90.501106   57.493111
H   35.002247   28.685648   63.316647
H   43.101990   43.606564    0.768764
H   10.684868   36.081879   77.988503
H    4.816828   58.290241   94.680153
H   80.962372   63.905045   87.766151
H   78.635368   19.073769   89.446678
H   13.543627   63.782661   42.962372
H   65.734467   74.613716    9.340046
H    0.645000   87.234558   75.625511
H    4.148098   47.325668   12.665265
H   29.375038   35.654198   73.076828
H   12.409385   13.931974   56.931808
H   99.200607   92.956223   84.046082
H   26.250820   95.936493   89.213219
H   77.804993   72.334846   89.000565
H    9.873184   57.203812   77.649551
H   53.789604   14.252689   49.588120
H    0.784280   55.057587   73.077637
H   76.111923    2.388298    9.523449
H    1.005200   34.752670   60.848400
H    9.856457   31.651701   96.057480
H   98.643349   17.744740   93.450859
H   26.067577   45.754856   89.997849
H   79.951454   46.235367   69.058784
H    5.012863    8.283966   27.467590
H   89.776077   79.453751   84.345284
H   66.503944   45.394760   88.135643
H   95.681824   68.004723   55.396049
H   34.995323   11.388161   26.342688
H   31.749159   59.514439   88.356544
H   27.707623   42.598885   87.207169
H   55.507679   78.092613   19.857330
H   27.907009   66.083153   86.576591
H   32.325626   86.969345   15.608132
H   59.818298   95.293503   75.183678
H   67.328285   80.364059   84.495598
H   96.340240   22.775002   15.332550
H   48.289417   78.535011   47.039875
H   99.355286   41.935490    1.814899
H   50.559212   51.413921   23.312136
H   18.959461   62.313908   20.338930
H   56.790829   97.161697   80.081223
H   53.918190   13.940451   50.236832
H   33.226921   81.167625   92.513435
H   46.312229   15.765648   52.250397
H   85.442566   46.670357   25.278517
H   13.865929   79.313721   28.882767
H   47.821404   45.955368   67.925789
H   53.895882   24.703428   84.395462
H    5.905024    2.137767   56.186142
H   22.791626    4.376419   95.942894
H   90.147659   43.559929   58.991966
H   69.732445   56.364555   52.767780
H    6.843649   87.428207   82.514565
H   83.131439   18.966280   43.846577
H   48.150932   35.952499   48.181847
H   45.041508   32.923798   55.781540
H   21.687630   95.599869   58.819008
H   24.595448   71.504768   15.929137
H   94.221863   50.960350   30.544947
H   94.636421   90.043243   44.213879
H   97.679192   82.756416   38.667160
H   49.470490   39.656982   40.388699
H   30.743561   45.040958   80.881943
H    8.193428   22.956509   43.603676
H   59.425133   23.446678   80.465118
H   62.602402   29.456694    8.347385
H   12.648457   23.925587   15.939394
H   38.544151   42.867443   50.637257
H   59.300949   40.980534   30.929153
H   64.370064   70.402267   66.022514
H   96.293343    4.504595   60.252678
H   35.438934   24.489231   27.952425
H   14.854188   70.645302   69.491982
H    4.291494   31.526529   70.676888
H   82.907860    8.571885   60.191017
H   42.995102   72.397011   71.150650
H   30.084057   57.869095   60.757103
H   71.112000   30.679039   89.708359
H   23.832859   72.074684   28.088871
H   27.218142   84.777229   94.802666
H   14.973484   14.230006   93.111832
H   60.785160   43.902260   47.360603
H   92.548706    2.661125   77.508865
H   28.476400    7.084093   42.172997
H    9.540819   38.775146   21.837091
H   18.972706   24.053694   83.272148
H   98.926552   12.498536   98.555534
H   85.718994   64.471748   43.185707
H   10.216918    5.463910   56.979141
H   78.136406   34.842682   68.807617
H   19.200830   75.470474   80.472923
H   37.909569   79.479378   17.232349
H   53.081558   25.021740   45.679592
