100
TIME:    5.507, STEP:  5507
H   44.906166   17.001884   94.104202
H   48.384804    3.278888   25.339085
H   74.419571   70.099686   58.702938
H   82.400940    5.761234   38.305511
H   45.845352   14.167757   16.388031
H   42.623890   95.241951   24.122713
H   64.346581   33.196735   21.107653
H   87.046951   65.026321    2.558732
H   18.255363   56.817810   53.441750
H   24.348154   95.455727   23.337484
H   88.007309   87.828796    9.287739
H   45.655182   99.728310    0.935296
H   92.653885   28.571735   77.818535
H   82.407372   88.101753   76.325691
H   47.484734   78.120163   86.056030
H   80.098984   30.066788   75.911835
H   81.266884   46.215328   74.712280
H   18.831205   26.866665    8.625082
H   31.041836    9.377337   53.490948
H   44.147797   88.866493   91.274818
H   37.483528    7.977486    7.775265
H   90.341797   51.394608   50.306351
H   12.217103   49.834145   74.788330
H    7.377922    2.707979   98.074951
H   32.621368   49.427795   77.210304
H   21.442308   63.860268   72.563644
H   87.204239   13.556913    9.232880
H   67.876228   13.487831   48.806198
H   30.915688   48.729923   96.854065
H   12.156483   54.541527   21.179153
H   32.789871   15.879149   73.682625
H   13.472462    0.361737   89.453499
H   58.263897   65.563988   93.911003
H   10.785026   69.039055   39.749306
H   43.882782   42.633194   60.064690
H   51.351521   16.760448    2.112747
H    7.992311    2.856338   42.395306
H   36.377651   58.175480   11.055939
H   12.619008   61.428642   10.643251
H   44.495396   96.635994   71.314598
H   58.887115   45.140480   72.088234
H   36.682701   59.016380   61.518627
H   58.675854   96.523788   99.250984
H   27.703281    5.077675   19.181543
H   78.963768   14.614923   27.359636
H    7.038274   67.954422    5.533968
H   84.758102   24.327663   78.327827
H   56.533520   52.090286    9.319831
H   26.005592   76.359619   24.797024
H   41.376118   14.551413   98.498337
H   43.124470   37.978516   11.479648
H   72.762505   52.731510   12.536896
H   23.103359   53.940186   83.031487
H   49.160461   17.349823   74.825340
H    2.318988   41.212215   47.188122
H    0.454671    6.740893    5.155533
H   45.371056   30.644783   79.748924
H   15.993144   56.819572   71.707504
H   24.602339   71.453316   88.707832
H   95.614319   51.075222    6.978401
H    7.086061   22.471390   85.026817
H    3.463396   76.683701   46.180847
H   47.931126   31.495745   55.838928
H   21.194988   71.762100   77.625809
H   50.905945   21.008808    8.411757
H   63.042259   68.503807   71.800148
H   45.731873   38.753681   32.940994
H   99.959435   32.489170   29.469046
H   31.370260   54.088432   14.842412
H   41.956505   25.127857   90.136963
H   47.161018   20.704422   96.086830
H   19.890087   68.758316   59.819679
H   47.924942   45.906609   20.547852
H    8.980289    0.881554   75.946465
H   27.686308   36.491520   18.866055
H   55.849686   60.521126   25.378595
H   66.955772   49.236439   88.442314
H   90.709198   90.631142   18.570070
H   25.593975   37.342930   79.125343
H   29.454376    9.026307   46.488220
H   18.635180   86.254105    9.129800
H   54.526443   80.184555   26.280485
H   66.206215   99.215881   54.403225
H   29.023066   83.404831   60.436703
H   84.183632    4.417941   13.910404
H   24.546856   11.334605   24.206161
H   34.954811    2.949063   86.138474
H   44.596703   64.399048   38.478706
H   69.969101   87.551613   83.150642
H   79.446228   82.702927   21.079882
H   49.391808   70.792526   49.759563
H   85.761131    9.658566   38.456955
H   38.462692   92.756752   44.869343
H   79.497841   47.276440   98.127769
H   61.378838   56.446949   42.630375
H   48.777222   78.266449   83.005096
H   25.482424   83.716240   20.476746
H   27.079161   63.126495   67.908409
H   46.372223   60.588810   83.768089
H   81.271683   37.315838   67.234772
