100
TIME:    7.093, STEP:  7093
H   37.651199   71.558784   92.652176
H    4.585678   89.222832   25.341198
H    1.692805   84.203087   40.080700
H   82.667145   40.419525   51.372143
H   31.639540   41.292568   73.385086
H   18.024143   93.523720   81.190048
H   81.225494   40.291370   45.134991
H   62.390480    2.237302   56.938950
H   79.268394    4.330304   53.608654
H   81.024544   18.229967   85.437386
H   40.481445   51.644749   56.515160
H   85.120789   79.226151   88.041924
H   91.452568   32.654644   20.223991
H    3.878646   83.213264   97.019676
H   66.757576   36.451103    9.801121
H   16.329338   91.349182   44.260254
H   53.730263   51.116734   19.092127
H   52.748119   49.693588   53.644897
H   55.738621   75.914276   37.048290
H    1.421921   55.182652   99.257072
H   43.368042   50.087341   64.723793
H   42.393158   53.500046   15.243774
H   91.040428   36.935310   29.412161
H   60.016830   21.681124   80.286163
H   75.898140   23.649467   88.923317
H   14.163189   16.999599   23.399687
H   50.442089   47.630188   40.704899
H   34.055214   87.516975    1.228071
H   65.401314   92.624702   21.881922
H   72.970398   15.288359   47.261467
H   95.208855   58.097870   48.203423
H   13.613503   56.536900   42.629509
H   69.979378   49.524452   36.790413
H   77.797722   23.691483   72.934647
H    4.430479   22.630379   56.596603
H   89.220284   40.983292   97.126381
H   60.109184   44.775024   67.365997
H   70.824150   29.147053   22.975006
H   45.675426   26.871313   56.947815
H   95.112328   48.160770   96.096725
H   50.495026   99.563072    9.453012
H    2.454459   69.418350   42.070042
H   72.329620    6.036722   13.809385
H   26.431858   31.698324   74.250969
H   41.390488   52.037060   63.077339
H   86.567192   98.204971   11.977335
H   97.148727   10.579194   93.549904
H   56.620541   68.425583    7.452408
H   72.363716   45.007221   61.533508
H   74.658447   38.693432   87.589577
H   43.014553   84.859924   28.196918
H   49.848362    5.560618    8.425460
H   56.003857   63.136353   90.918282
H   12.436295   91.473297   44.810257
H   76.039566   80.201851   60.679867
H    2.430082    5.072576   51.164337
H   45.916592   84.880760   30.590874
H   97.896652    7.040833   30.856993
H   49.686172   38.470554   66.955101
H   90.954353   72.980392   61.868797
H    7.132137   48.713463   61.368713
H   47.173500   61.921432   74.419296
H   55.605221   23.269569   47.082153
H   30.102901   80.401657   34.564953
H   13.855327   94.337921   56.109318
H   65.613251   89.659386   65.577362
H   18.483870   93.586304    9.511817
H   90.403603   23.193865    5.289016
H   10.415199   40.128586   15.371331
H   74.086388    4.898350   86.797302
H   96.796822   12.794129   77.065285
H   89.167717   16.094666   75.961937
H   44.514679   67.461441   79.885071
H   74.062080    0.504056   81.711884
H    4.149010   38.759243   39.097645
H   93.338799   62.168995   18.660849
H   10.978431   11.882877   16.536734
H   65.222366   86.926567    6.158445
H    1.649638   32.684345   96.815865
H   51.677383   22.630394    9.852881
H   49.672241    2.662616    3.921529
H   73.549019   90.469879   93.604149
H   66.524635   25.738073    5.444097
H   38.136677   19.122471   15.581697
H    6.959318    5.212401   60.165565
H   88.044785   69.593857   34.342773
H   40.880222   87.633583   61.764977
H   70.103966   37.484837   22.034508
H    2.882095   99.245888   70.179207
H   39.222271   17.449909   77.773514
H   14.297535   56.432060   83.252975
H    3.109071   28.940403   68.673073
H   40.128376   40.345020   67.517159
H   32.777832   43.496910    5.069095
H   33.959740   14.381409   79.076233
H   79.774292   15.637275    1.086062
H   99.593742   74.732498   29.264572
H   24.586191   37.421040   36.489914
H   70.818932   67.431496   50.924870
H   79.784279   96.617325   14.448689
