100
TIME:    9.325, STEP:  9325
H   86.710602   66.874672   90.608719
H   42.941940   10.171223   66.077446
H   40.059063   44.781410   13.878908
H   83.041779   48.460991   29.027147
H   11.639204   20.196854   12.867172
H   83.414673   91.105629    2.231508
H   64.245003   91.006203   19.680325
H   86.959686   95.333450   52.003876
H   24.401573   89.731140   13.111311
H   20.059740   50.278187   72.832191
H   32.866241   41.452560   41.516396
H   99.929893   91.104820   29.164909
H   49.125397   97.559273   98.415070
H   93.363708   76.333626   66.877800
H   93.867439   37.077858    2.462567
H   26.585590   96.130234   58.984436
H   74.245949   98.747993   22.279890
H    0.476385   41.084328   76.274979
H   90.507401   69.550125   54.637539
H   41.283001    7.787127   51.221947
H   10.917828   27.884199    4.147480
H   56.377178   56.463058   25.168365
H   61.240013   18.788801   65.551270
H   52.631466   48.382294   14.518267
H   96.069687   46.641914    5.404605
H    3.637481   51.202499   13.357595
H   57.974632   54.849163   84.988754
H   45.724953   91.699188   75.008659
H   13.934371   95.129234   16.374302
H   58.554756   60.045731   24.699089
H   83.053490   58.245762   71.614777
H   54.543476   94.873337   36.002098
H   27.197472   86.221329   37.866600
H   72.105438   19.141968   78.904320
H   48.882317   53.636635   92.392868
H   83.243988   15.806531   90.110512
H   74.187256   63.033455   43.238789
H   78.571632   88.301384   80.480247
H   51.462109   78.241722   40.650330
H   84.882477   39.208084   71.707108
H   97.954315   76.144608   62.037441
H   14.353798   78.171158   56.017452
H   91.538116   19.426712   75.026573
H   83.915565   69.169167   92.483223
H   47.780830   63.988010   54.078907
H   57.758141   40.770916   21.045176
H   14.596171   31.964315   14.981039
H   56.756771   91.414474   45.555317
H   37.608543   60.152737   72.497467
H   21.515356   72.670250   31.528488
H   43.204472   69.401711   51.203125
H   58.324184   98.447876   61.907875
H    2.291700   76.078247   61.292641
H   60.742012   55.061523   43.302132
H   98.324043   75.803787   79.652939
H    5.210035    2.724729   75.181778
H   87.416565   20.477806   42.872612
H   31.696733   96.255577   73.364281
H   25.721798   32.783913   95.604866
H   43.664455   44.539219   98.385414
H   47.930950   44.914997   87.348640
H   67.955437   41.146286   73.429726
H    7.134467   70.961693   94.027222
H   83.371277   92.560226   73.967590
H    2.447333   16.070614   63.965321
H   28.499462   78.700279   97.551140
H   39.406662   70.749603   17.273140
H   36.224335   50.844429   11.991531
H   21.658190   79.751312   75.385773
H   19.410889   17.015795   82.065445
H   25.914501   60.926495   50.295998
H    5.376592   41.974022   39.564465
H   98.984451   57.056332   22.655842
H   24.930485   59.239567   49.093452
H   11.665788   42.045803    8.329376
H   46.107880    5.217371   68.473984
H   13.691607   18.697544   56.125389
H   70.077492   40.988869   29.434792
H    8.682126   26.128254   21.724138
H   42.218193    1.041779   17.564018
H   93.367912   25.753763   37.325966
H   41.036354    4.949454    6.874767
H    7.700101   63.065220   18.008572
H   91.694283   10.119471   11.723234
H   98.281464   65.584030   43.799423
H   36.676838   51.577934   89.339401
H   89.950508   25.348701   68.195152
H    6.000248   58.880348   98.893112
H   49.205570   74.971321   51.924324
H   41.883724   25.620216   57.560989
H    5.640286   76.952393   30.389061
H   68.254471   96.808945   11.206857
H   83.204056    7.310118   40.121147
H   48.146645   78.882980   56.094204
H   95.365814   14.452457   30.363287
H   64.128357   27.497507   85.800400
H   22.427639    2.821508    0.898439
H   20.277903   47.860752   91.677879
H   64.491539   77.069801   63.972172
H   18.423676   39.339748   99.432480
