200
TIME:    0.285, STEP:   285
H   10.853930   62.325649   16.109049
H   28.365372   33.535114   91.723999
H   17.194498   71.107796   47.564690
H   19.359392   77.499733   43.322956
H   14.732367   84.869766   53.011509
H   88.154663   51.593624   64.217339
H    4.011191   55.272202   50.522373
H    3.897052   90.829590   23.475021
H   89.255981   86.831596   46.621643
H    9.277111   74.268547   94.297478
H   13.762189   95.555489   94.383713
H   30.963882   43.223957   14.886456
H   12.278644   88.501335   59.447350
H    2.276627   53.396793   44.434231
H   17.449238   72.291000   42.867870
H   27.988724   24.112251   53.352261
H   86.324341    9.826071   13.247229
H   35.493587   85.330315   42.719223
H   66.522652   28.072763   43.146275
H   90.199417   79.086693   35.726299
H   58.625122   79.004616   23.778820
H   89.027214   50.534416   68.840569
H   93.657669   62.214272   48.056458
H    9.561381   88.469452   91.444977
H    5.202393   14.513837   43.804630
H   18.623842   64.333244    5.470304
H   99.767113   59.699696   50.891174
H   95.542999   71.985779    0.849678
H   12.963906   55.161934   38.074863
H   91.015923   21.969837   97.069275
H   13.302741   53.329288   16.249830
H   31.107742   64.561020   94.711029
H   26.035995    9.953837   73.728813
H   94.937218   63.627014   39.076851
H   45.828938   87.941574   33.876797
H   31.591320   48.895931   79.992493
H   87.556046   73.457741   86.292763
H   30.689024   45.919350   13.144156
H   51.404793   44.789230   45.431904
H   89.651192   39.503437   61.938568
H   80.517700    3.121706    3.017928
H   15.579149   42.163265   38.496815
H   75.891617   86.748184   51.999233
H   37.181015   65.419487   20.357746
H   30.314491   77.668098   45.987831
H   40.426533   12.667380   43.177284
H   80.822159   24.007534   97.165718
H   89.020279   65.549919   46.029922
H   88.820671   27.044476   61.198776
H   60.507042   18.004580    3.808595
H   77.137756   69.926544   26.085342
H   19.417898   36.472515   64.509209
H   53.390240   93.134430    8.516940
H   21.736856   83.133331   82.369553
H   75.294144   75.384148   89.318008
H    4.728786   71.241470   80.121765
H    5.302060   16.915749   49.171879
H   67.900314   59.625500    4.491246
H   27.231617   75.346756    8.214861
H   42.062508   95.736488   66.162361
H   50.273777   14.498444   40.921749
H   90.745216   16.531485   49.411049
H   72.687050   26.138676   83.366745
H   25.216345   65.216537    4.672217
H   72.071754   76.749924   19.769726
H   36.974506   18.309410   33.672165
H   84.494240   22.212786   86.764839
H   97.089424   91.552238   88.162476
H   18.123142    6.461358   61.410233
H   44.977928   42.414307   50.980190
H   58.445423   77.370445   74.485031
H   30.875784   22.639000   44.449829
H   78.922012   26.441067   97.988914
H    9.331394    7.975578   61.882576
H   79.692978    1.600025   65.496819
H   54.451187   17.487877   62.583416
H   95.237381   31.625441   71.509056
H   24.888494    6.789364   46.428764
H   11.872681   31.698345   33.941792
H   67.598030   90.415977   92.127533
H   45.278004   29.341503    0.465666
H   28.615114   67.781036   86.466087
H   10.824146   14.159913   88.963074
H   23.206619   63.331078   95.318207
H   37.305759   99.799698   56.506924
H   25.935019   84.199844   26.846066
H   37.872066    2.877879    1.874487
H   74.957268   16.869530   13.139491
H   67.064308   72.162590   77.330093
H   23.218739   88.064178   54.370434
H   39.356434   35.281265   80.554329
H   83.741974   88.930283   99.349747
H   49.397392   16.354582   94.448204
H   58.009987   92.816940   70.340286
H   26.265162   56.317490   69.813980
H   67.408516   28.715405   26.945869
H   79.916023   12.722719    0.267277
H    5.657616   29.137972   49.019634
H   35.998238   69.327248   53.040722
H   67.986862   98.658661   27.261393
H   11.873957   81.670593   71.058784
H   92.245659   77.337379   65.616379
H   24.112204   35.525436   31.131723
H   24.038235   68.022568   91.949364
H   25.279087   26.881359   26.546486
H   89.204605   24.569695   41.783970
H   67.789993   30.655539   56.049805
H   64.486153   36.002148   17.001560
H   73.940170   39.521626    1.308569
H    5.812294   27.432966    5.757506
H   47.786602   95.675735    0.827512
H   87.800865   64.476990   91.023743
H   56.312466   80.796852   92.956558
H   63.071739   18.427202   73.793549
H   62.348564   83.842422   25.194834
H   12.202017    4.480841   80.964455
H   30.724773    9.076355   84.704697
H   40.542805   29.211426   33.079002
H   20.571316   59.403103   81.315613
H   71.970184   47.572994   51.021435
H   41.024239   22.058468   86.045258
H   16.347435   26.414013   49.511845
H   33.321297   19.924679   25.364075
H    3.414303   65.699371   15.894614
H   75.569862    7.837924   91.324829
H   49.370983   63.583755   24.662521
H   94.268089   49.400040   69.316864
H   74.444366   87.922905   35.382633
H   93.021500   50.854774   83.864761
H   69.926323   23.936056   67.268250
H   50.425476   83.578949    5.131046
H   79.972748   86.497696   10.388196
H   92.290810   84.784103   97.709892
H   98.714027   14.156735   50.261044
H    6.649120    0.556462   54.349052
H   61.159538    1.569097   83.018646
H   68.967216   86.679192   57.578842
H   91.602180   62.815903   82.487350
H   47.489456   44.962944   71.539444
H   43.472321    6.931675   94.207108
H   52.845478   61.745327   16.363541
H   55.166687   42.378109   47.295914
H   53.558910   57.589256   97.866417
H   55.651085   24.898714   78.870125
H   42.417149   68.274651   50.540028
H   47.588940   62.751125   27.690960
H   45.795555   96.580727   46.959686
H   41.423691   71.743622   68.566795
H   66.388275   62.913517   97.497108
H   10.896426   89.166092   88.312935
H   74.634071   62.074184   51.004478
H   35.681652    5.864577   46.742130
H   78.266243   30.155964    1.884808
H   11.099462    2.175653   74.840500
H   15.396957   55.067451   61.567402
H   64.837967   43.640484   55.445408
H   59.782299   62.233017   81.288620
H   46.685848   35.937889   10.778391
H   10.322253    1.564773    0.936151
H   63.175163   55.107727   79.967987
H   54.397976   82.581192   82.219406
H   41.491299   22.823099   35.154133
H   67.156380   32.608028   37.213341
H   12.926448   21.501625   69.273438
H   58.523315   23.615290   10.266702
H   12.689004   63.007469   62.055832
H   74.124954   96.839119   52.698746
H   23.671524   32.979969   49.873524
H   94.684418   28.023869   36.750675
H   28.526539   10.120125   89.896606
H   78.505310    6.168973   35.972298
H   44.608376   63.775791   57.596302
H   38.542408   75.520645   89.157852
H   70.670891   73.465561   75.286301
H   69.346344   94.698029   97.115524
H    2.296727   47.903923   23.329918
H   34.955460   54.326885   88.790405
H    2.128825    9.243774   65.455612
H   74.450752   20.333460   68.608528
H   84.159912   54.937813   87.019806
H   80.596245   86.802002   40.673023
H   20.135326   30.160976   71.258965
H   63.563499   90.119064    6.960673
H   52.460762   25.303680   78.845787
H   86.104897   86.382591   78.211441
H    0.202502   36.603485   84.179420
H   32.918915    3.753747    0.262184
H   88.259148   69.130684   27.101110
H    5.315210   61.374077   67.057709
H   50.431881   58.028522   66.271561
H   49.969986   29.535526   78.980110
H   47.284016   86.152115   24.051210
H    5.100034   18.594591   58.837040
H   34.317356   65.327049   34.220169
H   83.350342   52.245354   21.669085
H   75.438004   10.493867   28.949850
H    9.760400   86.786446    4.985639
H   27.601688   96.511826   45.697620
H   11.313225   11.737808   76.004509
H    7.538393   33.468216   97.123604
