100
TIME:    0.202, STEP:   202
H    3.662363    3.496948   98.961075
H   95.651192   15.696861   90.742645
H   83.235077   88.436760   20.968056
H   81.510513   24.328138   29.090605
H   93.361755   88.948715   60.228142
H   24.883972    0.993799   98.749779
H   42.383389   74.978325    6.249221
H    4.009497    6.078198   89.646889
H   48.662453   66.871902   87.371925
H   69.320259   19.287155   15.599115
H   81.465485   74.370468   20.292145
H   48.131832   33.815742   78.550652
H   30.413517   49.486160    5.052161
H   45.080128    4.454454   72.613075
H   82.959724   51.978493   41.062679
H   93.401581   94.068611   16.271870
H    7.825814   95.355690   91.746605
H    5.461339   84.877289   92.543259
H   48.409760   86.827179   74.003876
H   87.181435    1.296686   29.968866
H   52.289581   36.107841   51.759064
H   81.716835   44.366554    2.055103
H   83.047035   92.979362   26.571281
H    0.273515   39.104435   92.072250
H   22.358400   70.153816   38.050003
H   45.730793   21.592499   70.238335
H   44.660297   34.079914    3.974717
H   15.496849   65.867859   73.452713
H   15.563605   67.418999   47.623260
H    8.739512   85.840195   99.447502
H   24.047853   40.156715   93.427422
H   78.511810   46.929451   80.563942
H   84.586609   53.702766   15.994710
H   86.636971   55.210571   63.241325
H   75.750801   43.650589   37.028618
H   90.117973    0.353644   19.949278
H   99.173820   97.137550   24.381969
H   55.639709   55.257061   36.695736
H   41.639469   76.195885   22.765732
H   44.167110   93.272408   53.927727
H   21.437473   63.109638   47.098087
H   13.466568   20.922739   12.290423
H   12.981448   64.711273   16.064075
H   66.460403   16.157026    0.482423
H   39.133461   23.921955   73.393127
H   75.371574   67.001518   84.110435
H   38.213001   36.637745   29.349310
H   56.250202   97.462173   81.076569
H   70.932487   15.719982   36.416107
H   30.126371   33.823963   69.535782
H   43.527966   50.142326   55.548824
H   14.949876   44.995049   60.802315
H   13.069439   23.179993   91.138100
H   72.008087    3.906298   40.729572
H   24.678139   76.213715    2.120229
H   93.818985   12.319843   85.750244
H    9.058470   83.718208   75.199287
H   11.018143   57.810234    8.351778
H    6.209060   47.303925   95.975571
H   45.689270   43.314644   57.862144
H   72.442947   69.175522   98.646942
H   91.741760   26.065170   86.214844
H   87.934486   93.378273   19.700165
H   56.911209   42.893311   21.656149
H   40.339714   44.711033   14.372701
H   88.936287   32.231129   58.129681
H   71.361717   55.344654   76.814682
H   66.412239   29.090244   75.859367
H   66.971581   35.271889   47.564114
H   34.478706   58.304947    1.305990
H   15.618086   81.660301   59.724735
H   57.310398   44.821571   71.411995
H   93.820572    8.315800   56.569981
H   25.744781   36.596691   91.203148
H   71.909836   28.931120   16.710827
H   30.433622   20.518484   82.337296
H   85.295410    9.036095   94.606873
H   41.470657   37.512318   25.595554
H   71.236320   52.909084   19.940826
H   89.619003   97.952492    3.518748
H   14.834873   31.371210   92.061981
H   56.480015   45.546768   69.889587
H   30.577305   10.628966   49.139313
H   64.066864   29.446995   44.979713
H   42.494431   36.248947   28.170677
H   46.646458   16.471628   55.811428
H   80.645836   88.665871   33.175320
H   59.206970   89.121529   93.638771
H   59.875191   82.925377   26.548233
H   48.475868    0.975672   31.432901
H   32.289249   84.338684   37.727612
H   93.232582   10.698736   37.373421
H   98.245186   33.683975   34.542351
H   66.752724   25.484999   40.438389
H   53.099430   31.635738   20.728733
H   10.606003   87.754753   57.015388
H   46.568321   79.272820   25.571754
H    7.606939   17.957581   52.803299
H   99.089409   37.721035   28.131321
H   51.786388   73.514854   78.230453
