100
TIME:    7.884, STEP:  7884
H   84.159660   99.020958   91.927994
H   82.740067   32.086437   75.217484
H   15.289675   41.110062   30.793457
H   82.799911    7.829090    8.013130
H   24.551607    4.694655   51.937225
H    5.756551   92.666771   59.525787
H   39.769596   93.702484    6.992237
H    0.219439   70.667320   84.311150
H   59.824104   28.278889    3.816745
H   59.419777   29.587557   16.409683
H   66.904556   83.472549   80.322357
H   54.932648   18.874523   31.736778
H   41.013283   84.777756   41.616581
H   64.712639   80.775185   57.216991
H   76.365059   65.795090   71.758820
H   84.524261   22.165649   78.599884
H   90.122566    3.437070   91.099976
H   69.661789   11.203497   26.227932
H   68.057739    9.095365   78.721069
H   80.107224   38.387661   53.111977
H   96.428993   71.340820   43.257626
H   18.227098   54.550110   47.882843
H   80.479439   30.502863    6.779067
H   86.520782   31.143770   21.539097
H   47.606758   60.920647   94.765053
H   10.433651   93.683151   48.963356
H   82.233139   14.747811   56.401546
H   67.311760   24.438162   27.374914
H   82.600639   64.390121   84.491600
H    3.301357   95.710129   10.144207
H   26.339907   29.029499   85.622093
H   63.557858   34.684704   69.402702
H   25.694941   91.651802    8.049939
H   11.219241   51.201118   39.610199
H   84.744606   62.740593    4.719920
H   57.980244    2.937231   94.640022
H   35.977352   15.806051   29.693571
H   38.132103   14.669584   78.792946
H   12.284764    9.638796   80.294334
H   20.609112   74.110199   58.332214
H   96.436508   26.702078   28.088102
H   35.793449   72.520264   82.451988
H   79.136932   10.781624   70.942116
H   75.922928   44.974998   51.590595
H   72.776466   20.830845   30.765598
H   76.356224   13.289763   15.190893
H    3.330442   53.597115    1.142477
H   56.668819   76.572632   56.394787
H   95.489265   79.496956   29.977467
H   91.266357   50.732960   32.282738
H   42.960239    8.493990   36.535706
H   88.290634   32.161793   56.501373
H   72.409523   67.722839   44.980995
H   94.118591   78.570786   79.715836
H   13.058952   49.521416   67.405670
H    3.415272    4.240520   24.236832
H   96.064026   62.056953    5.821427
H   38.996506   32.341225   10.480727
H   12.068405   71.896172    6.231148
H   38.755814   33.778751   39.370872
H   57.029522   11.929565   99.698158
H   19.099373   54.558914   38.628349
H    9.304881   69.292999   92.840912
H   84.420219   84.710541   13.087123
H   45.252914   31.162001   29.771929
H   17.021561   50.336296   12.347848
H   55.020569   20.933270   47.702129
H   35.764061   68.431694   43.103394
H   49.840668   83.292381   65.763428
H   90.144691   44.636501   85.121765
H   71.679771   58.974976   67.578499
H   24.039459   89.819725   33.940434
H   92.939163   28.337748   59.606533
H   56.648052   50.440601   34.712463
H   42.250854   39.923969   99.071991
H   12.037927   12.862843   65.434883
H   82.818077   43.420738   30.564745
H    2.384740   35.207088   49.844425
H   39.579147   30.360928    5.641748
H   12.886727   79.540398   41.707497
H   65.157417   10.845956   51.198822
H   32.905792   95.599503   27.429100
H   16.554834   38.966465   80.775589
H   92.556099   86.809937   43.335247
H   68.444901   55.728146   83.487694
H   69.843674   98.645630   89.271988
H   93.709312   30.121452   99.482796
H   82.825432   74.189270   13.833145
H   19.299671   55.203545   63.709846
H   69.288086   84.906754    6.052009
H   46.668476   99.145668   99.957443
H   61.635059   88.431808   83.748131
H   90.833191   64.080070   28.686403
H    9.224421   91.486046   58.404781
H   20.282181   43.529366   97.253204
H   45.107681   84.401794   60.230080
H   36.807152   20.125843   83.772453
H   23.059374   76.558983   20.610056
H   33.137321   70.847221   84.669655
H   28.916948   76.316086   38.249699
