100
TIME:    4.614, STEP:  4614
H    5.296787   98.894112   94.921768
H   73.048042   54.890930   69.034424
H   59.065147    5.854014   69.184853
H   82.251053   42.554131   87.254036
H   53.843872   42.589951   40.599411
H   56.474819   96.209404   35.685925
H   11.151152   72.897842   51.273815
H   57.234993   87.771698   84.551796
H   40.207008   42.676163    9.651566
H   48.751427   82.633568   88.368530
H   71.071991   51.896778   95.305862
H   79.737724   54.966576   64.499458
H   49.638199   82.572182   66.551758
H   26.622601   90.854225    8.366763
H   36.624733   57.886230   28.981049
H   16.005135    8.171757   50.039001
H   53.076729   87.151077   93.418968
H   99.735481   70.314873   39.581005
H   17.132996   71.917664    6.446813
H   68.205864    7.832598   30.475168
H   90.475426   96.878448   32.012688
H    4.729019   50.209137   26.353531
H   24.140480   57.096855    0.337290
H   90.350876   92.019348   64.398422
H   64.560944   20.245987   70.615273
H   25.513105   90.254059   56.537937
H   64.209587   50.679638   91.515907
H   43.225727   71.805634   19.285257
H   11.498101   67.710167   39.065285
H   77.914749   76.643059   50.188118
H   97.644173   35.801975   44.333946
H   57.087963   25.032608   72.122963
H   95.360817   30.899618   13.462514
H   73.053864   50.877136   77.370964
H   66.079697   10.137142    5.689743
H   73.724869   46.817158    4.921666
H   22.341978   35.561996   72.030502
H   73.285652   74.515602   48.037960
H   50.315456   80.886711   97.181763
H   28.606543   80.236351    1.053824
H   19.917408   14.502194   51.049541
H   16.940887   18.936323   19.570681
H   50.983921   91.168732   34.748123
H   84.724167   90.094513   31.867537
H   56.424580   49.845268   50.943256
H   18.560772   50.921803    1.904267
H   77.781540   75.762657   69.757011
H   56.485828   42.892670   54.066093
H   99.904526   50.317516   60.421768
H   22.647045    0.959380   60.953804
H   43.192600   24.191776    2.065716
H   29.363588   35.594433   71.162354
H    4.579571   48.762268   34.894924
H   69.839989   31.922935   35.418663
H   73.421326   62.948582   39.591572
H   99.339371    7.680243   35.555359
H   88.759598   56.411736   94.817146
H   82.487686   41.152550   94.708359
H   54.172180   33.722473   57.264717
H   54.541348   82.435577   32.377449
H   50.755554   63.997707   54.651222
H   35.154747   84.995621   86.585236
H   87.305000   92.431686   17.074638
H   59.875801   66.897583    1.867161
H   15.459237   92.331390   25.251055
H   17.899849   12.897146   18.999014
H   17.378653    7.881536   89.825607
H   61.645226   81.416519   86.778481
H   86.863113   18.253708   70.851624
H   23.866327   80.213867   92.017365
H   75.516930   81.463196    6.798680
H   93.522003   98.395081   94.437065
H    6.149561   90.079628   43.446510
H   28.636715   57.397572   29.005150
H   84.630501   35.217480   51.170742
H   34.736046    3.286338   85.465683
H   85.876389   26.635174   72.649666
H   48.754436   49.022915   69.255104
H   82.770699   39.965954   69.164665
H   73.245880   57.666676   23.420891
H    1.160830   77.015610   55.756695
H   87.519081   74.360489    0.957218
H    9.719492   84.281677   69.358704
H   67.584595    6.988754   41.998985
H   27.666178   60.277779    0.476961
H   45.101826   78.535408   62.193375
H   75.313347   67.877533   43.556915
H   30.224283   35.886086   47.759544
H   51.437607   37.271568   90.454231
H   58.399830   19.442497   89.156830
H   12.846610   22.574951   30.901041
H   19.687399   42.496658   21.444376
H   81.219917   65.962135   75.812241
H   93.188034   93.105759   37.916988
H   76.817207   36.435814   22.111111
H   75.019058   13.529993   29.130028
H   96.365074   32.468487   71.833511
H   23.802084   55.523132   82.202187
H   88.912903   56.739437   58.567062
H   25.804522   60.228123   53.259602
