100
TIME:    4.194, STEP:  4194
H   33.698639   37.410095   95.306290
H   84.647774   32.130463   42.551117
H   51.845757   75.637321   74.113136
H   82.180557   59.857597   10.275022
H   57.605774    8.925097   51.987656
H   62.989254   96.664421   94.091698
H   33.163143   44.537182   18.429270
H   90.246162   51.435528   23.114483
H   50.531410   83.057327   36.089458
H   60.229393   76.602989   71.923828
H   10.139359   34.997059   35.762348
H   95.765862   33.914024   94.396004
H   76.439346    7.970322    8.285233
H   47.418388   92.148781   76.405807
H   31.516853   95.402710   49.171391
H   32.893555   44.906548   84.902283
H   86.850533   59.369938   55.184715
H   90.759727   90.746300   54.143032
H   10.591324   54.298409   84.318451
H   79.523613   16.751894    1.879672
H   15.398804   38.691662   43.410545
H   64.463211   49.651581   62.120438
H   29.748085   60.512688   12.354388
H   29.373482   86.982117   95.589523
H   79.582916   53.555161   67.513466
H   27.427702    2.668318   96.034096
H    0.425123   68.139359   83.184608
H   78.663910   52.201447    5.401438
H    2.364951   29.604191   58.919411
H   61.809708   87.037956   16.799564
H   81.116158   98.140114   77.563011
H   30.568800   36.635544   11.004433
H   65.778297   61.629234   75.625595
H   55.308197   89.367737   95.065361
H   76.519455   41.885948   80.113358
H   37.214558   13.921293    6.243058
H   82.057907   50.942856   38.936024
H   90.646797   82.199623   18.400967
H   68.044373   90.038322   37.882164
H   68.164665   19.554790   68.010559
H   48.621262    0.092073   41.154522
H   54.688309    0.085822   99.839584
H   47.366215   88.650116    4.411385
H   11.543947   83.057770   90.801880
H   92.857323   66.415405   15.002559
H   23.979321   42.910938    0.196875
H   74.500290   52.922081   65.725945
H   56.463398   38.566803   28.078850
H   87.625473   85.102631   77.174774
H   13.838298   94.569435   90.330910
H   43.224644   64.739876   97.637680
H    8.953508   74.568024   98.732544
H   95.868782   46.326965   59.289608
H   79.568382   38.777031   16.886036
H    6.861793   26.140261   36.018726
H   98.813858    8.122152   49.853149
H   62.131710   68.530571   54.871773
H   13.761769   80.815941    5.526716
H   21.048857   15.975363   89.507515
H   82.257843   50.153622   44.323250
H   24.261557   83.531395   87.398720
H   50.061363   88.904922    5.587799
H   58.792149   21.092094   45.875298
H   31.033541   64.609680   13.271427
H   98.788567   25.875809   86.137779
H   43.700996   33.776558   94.165817
H   51.076248   93.360535   69.548508
H   90.657372   57.396744   66.700050
H   65.932327   48.432236   97.191345
H   15.357187   59.090073   92.901764
H   88.853416   10.039837   11.837418
H   28.152966   12.334476   63.688129
H   33.535385   10.854931   54.216316
H   37.884457   83.975212   53.960594
H   64.379036   34.618267   19.331724
H   24.805780   76.369591   13.726929
H   47.743309   63.039509   65.221992
H   29.022076   76.485909   46.059570
H   62.628403   41.199627   64.479912
H   93.843414   80.540184   59.604362
H   92.944504   72.670517   30.653936
H   56.006729   71.617569   36.078247
H   83.151375   77.263611   29.357800
H   38.690613   71.048653   80.359573
H   48.116653   86.547462   41.191086
H   54.769337   63.109505   33.027420
H   47.262505   98.414948   23.529753
H   23.464716   69.512489   52.127068
H   42.721786   60.656883   93.889290
H   95.532272   36.723534   74.141266
H   95.658325   99.896294   22.031412
H   88.609955   10.911552   13.441523
H   54.297005   53.358948   43.332989
H   52.594479   67.631210    9.598917
H   84.078255   74.057182   12.460929
H   40.328812   30.114204   50.823448
H   29.702045    8.365653   95.987869
H   22.260794   51.947083   88.924904
H    8.920677   54.928982   93.744865
H   99.717537   71.006416   93.718521
