100
TIME:    3.148, STEP:  3148
H    4.436248   33.333611   96.263931
H   13.702822   75.425247   76.574905
H   33.866035    0.384306   86.386909
H   82.004990    2.951738   67.612000
H   66.974701   25.083584   80.349808
H   79.205818   97.797630   90.502800
H   87.983635   73.906425   36.630638
H   72.459702   60.942913   19.154636
H   76.244087   83.625961    1.930874
H   88.814995   61.583977   30.962252
H    7.435730   92.909317   36.518322
H   35.690659   81.483749   68.851006
H   43.017830   71.248962   12.243698
H   99.210838   95.372841   96.803444
H   18.792191   88.835495   99.449928
H   74.949982   36.393585   71.729836
H   70.963692   90.186737   59.963207
H   68.414757   41.613503   90.407898
H   94.298515   10.414485   29.211214
H    7.708008   38.963940   30.663080
H   77.469940   42.824394   71.798828
H   64.182175   48.263000   51.196991
H   43.713692   69.019737   42.283066
H   26.558228   74.437012   73.276466
H   16.993782   36.507408   59.788490
H   32.224567   33.809841   94.109444
H   90.623245   11.617740   62.435108
H   66.921837    3.377692   70.829643
H   79.620804   34.702835    8.365091
H   21.701511   12.927176   33.645081
H   39.948864    4.343266   60.319206
H   64.523842   65.532799    7.837900
H   92.098114   38.159187   81.393654
H   11.111373   85.227394   39.130081
H    2.519682   20.955627   16.420189
H   46.260860   31.776449    9.818727
H   81.732887   89.248520   56.515377
H   33.878784    1.337005   44.586521
H   12.193440   12.827944   39.247330
H   66.686111   17.477797   85.712563
H   20.108191   64.196487   16.511213
H   48.696861   53.143570   50.696609
H   38.356403   82.377563   28.857296
H   78.338226   65.532928   88.528648
H   83.589638    7.688604   25.494028
H   37.474087   22.960072   95.951027
H   66.328415   96.036041   55.680061
H   56.407536   27.794893   63.358330
H   57.046600   71.731438   18.898554
H   91.903282   78.656624   63.487881
H   43.304447   65.724426   86.608841
H   58.119404   71.629028   67.402794
H   74.178200   40.261902   20.037971
H    3.795467   55.846992   70.729156
H   90.144485   34.466866   27.122828
H   97.505081    9.223440   85.461456
H   95.822029   98.712242   55.388466
H   91.649895   79.597717   32.471512
H   38.552521   71.779312   69.810539
H   51.282372   69.754639   74.073982
H   58.279060   32.175701   68.951981
H   87.185936   98.640945   52.918846
H   87.778191   92.468925   17.602676
H   59.208076   58.918839   41.673481
H   57.273510    9.418010   88.728355
H    7.958600   85.776497   32.318130
H   34.999031   57.195103   19.047846
H   62.911873   97.574036   16.695204
H   13.797104   23.591118   62.796978
H   94.164368    6.477251   95.104340
H   22.069309   81.209633   24.386513
H   14.400483   47.049194   87.103729
H    1.735517   62.591518   81.033195
H   60.914753   50.168449   16.113548
H   13.949821   33.125942   40.038120
H    0.075725    9.329519   84.108856
H   52.773510   53.699669   46.723545
H   79.879089   44.880939   88.291916
H   12.471782   44.272060   52.804993
H   45.141548   37.506939   49.718155
H   72.482895   61.849163   68.137375
H   77.522690   64.786392   23.543901
H   16.972670   59.802612   29.731236
H   66.726364   81.540009   75.895203
H   99.047226   51.976223   42.589073
H   78.841125   24.684895   60.389889
H   77.402519   74.467674   73.652069
H    6.630175   53.257843   63.004280
H   21.013226   18.896673    2.445025
H   88.013000   79.758621   36.751175
H   52.851746   43.414310   99.941727
H   11.212059   32.253181   93.508293
H   87.247589   21.972242   62.444115
H   51.494564    4.181623   39.072090
H    2.162107   67.751831   88.425163
H   53.933487   71.420296    4.850571
H   12.729135   48.337765   56.145317
H   18.422247   43.041016    5.665668
H   58.749962   50.420086   81.358940
H   34.745152   97.852303   94.482498
