200
TIME:    0.014, STEP:    14
H    2.526635   63.225040   11.475117
H   25.949938   29.578510   80.722481
H   22.874619   59.246170   34.216484
H   10.224532   74.332222   50.409538
H   17.609787   78.001312   56.907837
H   96.970764   58.948990   72.239494
H    0.084945   55.464485   45.276958
H   97.824272   79.127167   33.094372
H   78.250328   90.894363   53.232685
H   18.816860   78.064598    4.986484
H    4.316256   89.766304   85.819855
H   29.843262   35.990578    1.973781
H    5.627284   79.507423   70.554314
H   15.086231   52.253429   31.375484
H   30.533312   70.204826   43.534660
H   35.887859   35.278141   59.198303
H   73.575729   97.133743   26.404701
H   41.928886   72.302582   47.543888
H   57.506001   37.883572   39.156906
H   89.337242   82.808311   46.231602
H   55.372841   65.476532   36.194553
H   95.060371   40.175911   79.283844
H    1.772994   64.184662   54.558952
H    3.859730   86.062080   92.307762
H   93.423409    3.614408   53.474636
H   18.848173   52.307217   14.420797
H   94.519630   54.261997   39.995102
H   89.323761   60.806152    0.136610
H    1.549980   63.399117   39.661720
H    3.262309   14.710096    6.443358
H   13.656553   42.007298   15.918503
H   36.035786   58.209457   88.038994
H   32.583977    4.122526   70.418640
H    3.906769   63.331352   34.340057
H   58.833927   99.139511   35.938160
H   40.443604   55.074852   76.884941
H   79.777863   79.306885   84.258278
H   44.094036   38.909267   25.328838
H   61.434555   54.493351   39.408051
H   92.250122   40.617855   72.524506
H   80.439163   15.785890   94.022911
H    2.090396   47.845970   46.532410
H   80.771072   92.973625   41.936390
H   37.784744   52.258286   10.665515
H   21.055414   69.399902   36.208244
H   44.240158   19.720242   40.229969
H   75.715271   37.284409   91.223534
H   95.617882   65.554054   55.772293
H   78.340179   37.328548   61.003391
H   70.204300   16.781614   15.273975
H   83.584427   73.356636   36.825314
H   29.777437   31.808086   58.681862
H   46.082428    0.889790    4.971471
H   25.770161   77.414444   78.356407
H   86.764999   81.411102   98.082420
H    8.202814   77.917641   71.247772
H    6.075459   15.890265   52.078876
H   64.939560   53.325626    9.382497
H   32.949902   70.111679    1.660421
H   48.330334   97.258217   71.172073
H   51.151459   19.785727   48.839493
H   85.876099   15.889549   47.334179
H   65.221069   20.524717   92.509521
H   18.650272   64.829903   98.621819
H   67.715393   72.709900    8.687920
H   47.604897    7.781047   28.800980
H   94.617043   27.929089   81.165871
H   98.607018   90.936104   82.797142
H    8.483835    2.799182   64.840324
H   46.537907   37.690952   50.994663
H   58.564308   72.683273   67.236145
H   38.491741   29.762281   46.346821
H   70.320938   21.755962    7.063059
H    0.502605   13.932237   53.993778
H   76.393143   97.212837   78.239227
H   47.601341   27.055538   64.354080
H   96.382812   21.536753   75.342323
H   34.925861    1.854574   55.695595
H    9.812351   19.624277   39.943935
H   71.681473   91.927368    4.979640
H   33.776134   33.921463    4.488245
H   16.699215   72.654289   94.843864
H   11.881448   11.187270   96.892189
H   32.043911   54.469490   86.485565
H   46.956123   96.934052   64.186874
H   18.300014   93.681702   32.487419
H   25.726152    2.313175    1.253216
H   77.210915   26.955633    2.918020
H   58.774788   71.488564   76.343864
H   24.576096   75.917229   57.351864
H   50.716141   32.941814   81.759720
H   85.629662   86.552582   93.436508
H   36.523693   19.410961    2.166339
H   70.162628    2.553110   62.899273
H   19.398258   59.983284   58.527138
H   78.631264   22.656403   39.687450
H   76.239891   22.096029   88.595871
H   13.107573   24.926857   46.453785
H   42.138908   72.041962   52.080338
H   63.274883   94.254745   27.195230
H   99.783020   74.177734   58.297302
H   82.168343   73.237396   67.111229
H   18.494627   45.429077   27.344460
H   11.016188   67.522217   81.187683
H   25.638353   30.442741   17.760328
H   78.476006   37.838009   54.471588
H   54.952480   27.290575   57.311020
H   66.082314   25.597122   27.480501
H   67.053108   42.942413   88.204338
H   97.107178   31.211443    4.431162
H   44.221085   98.030693    0.636843
H   76.919266   57.661331   87.936867
H   61.019279   77.652084   98.851189
H   63.989738   24.269627   80.781921
H   71.392097   72.557648   34.696995
H   23.261517   12.408922   68.738937
H   41.866886    5.260311   81.545456
H   41.917736   15.872525   38.496025
H   10.279490   49.228611   94.709305
H   64.818474   42.164242   40.912071
H   38.195808   20.257618   94.925453
H   28.040554   32.833805   41.540344
H   26.787718   31.354183   17.324862
H    7.407041   75.452080   27.761929
H   83.676201   14.542761    0.287796
H   39.442532   56.168430   29.895014
H    1.004079   48.134689   79.782883
H   80.372078   85.797447   33.093838
H   89.686516   60.664341   90.040581
H   56.791077   25.220531   62.651375
H   39.485985   93.255157   94.774628
H   90.374672   83.809860    3.997431
H   93.175728   71.599236   95.694016
H   12.002509    7.208421   46.925026
H   93.261566    5.456500   66.802002
H   68.377411    1.916900   87.011116
H   68.518555   85.988625   44.087975
H   89.290642   71.276527   86.769279
H   40.405975   41.173096   71.603539
H   43.325523   19.929247    1.737410
H   39.429043   69.715500    7.609714
H   67.642380   34.144028   40.978466
H   62.270599   52.601254    7.006948
H   68.068886   34.708656   74.379372
H   29.678875   77.262360   41.678440
H   37.659454   58.081528   40.670105
H   39.386101   97.767509   48.900097
H   48.823509   81.831276   70.121605
H   59.143528   74.227341    0.191187
H    2.219370   86.145569   98.441368
H   84.186226   57.471783   53.050335
H   24.274206   13.363085   55.234657
H   65.676834   40.289104   11.398643
H    3.935605   95.954651   81.537346
H    4.650743   47.910572   56.664169
H   56.793068   42.968525   47.107948
H   56.945599   54.106449   78.079758
H   42.832939   40.285980    4.429340
H   22.725462    2.585892   10.985885
H   66.212700   66.165070   69.568130
H   51.735985   93.590981   89.424873
H   54.215099   24.227493   37.501854
H   55.491177   44.423134   37.326023
H    2.979123   13.540382   80.868347
H   61.118111   14.419789    7.603936
H    8.019923   71.629341   63.537243
H   78.791451    1.222137   49.825863
H   23.434788   20.650040   38.667316
H   91.002083   28.905169   37.390587
H   16.159393   12.165206   92.948334
H   83.682495    2.946155   35.995041
H   53.970314   73.840729   56.764107
H   33.306297   87.165176   96.783035
H   74.003807   79.961853   69.009171
H   81.941956   96.736649    9.857207
H   93.929413   46.440086   23.069921
H   37.739437   45.861237   77.453941
H   99.726936    8.985329   61.990368
H   81.381233   26.633333   71.778107
H   97.051186   52.030815   83.196877
H   85.543930   77.090645   46.973930
H   14.669262   29.830166   61.365665
H   76.039230   90.400253    1.597049
H   46.559929   24.801779   68.875984
H   82.600372   98.136703   79.327927
H   94.529106   34.316757   82.823097
H   23.483011    8.395805   94.257950
H    1.278589   57.652126   17.618736
H   13.163174   60.165585   63.960495
H   45.503838   59.502697   62.847675
H   37.023922   38.501526   80.915352
H   49.505615   78.787445   27.503012
H   99.080620   12.147403   52.629173
H   39.052082   54.510704   28.758411
H   92.650253   64.349892   22.555553
H   74.776382    9.828886   32.662773
H    7.959036   79.396965   95.838699
H   35.477791    1.897547   53.340378
H   14.927072   10.979528   88.124580
H   10.364992   42.649242    0.888795
