100
TIME:    6.382, STEP:  6382
H   85.733963   36.760185   93.303116
H   24.219772   50.696163   80.511513
H   89.466644   33.050056   48.429005
H   82.547806   69.711823   90.343506
H   38.008057   84.302872   92.663757
H   29.052151   94.293999   10.776760
H   18.490025   92.280342   89.533791
H   18.273682   40.725689   22.219479
H   96.746132   72.690079   98.362038
H    0.444311    8.019999   57.598850
H    6.616928   23.035940   25.003292
H   12.256554   43.587193   38.650871
H   36.818161   75.658165   90.873955
H   39.081947   85.404762   42.913601
H   58.121773   99.961143   43.991741
H   44.917938   53.535988    3.278917
H   10.904672    4.091403   54.366982
H   37.543247   84.291046   78.291542
H   44.667217   46.087120   99.591949
H   20.575829   70.281288   50.848839
H   85.559799   20.868824   84.024162
H   74.228897   52.556183   75.792038
H    0.533355   42.717827   49.754379
H   26.077808   13.175508   33.090313
H    1.328113   80.035599   83.672401
H   17.453566   37.991852   90.282692
H   11.751522   77.185867   26.595778
H   94.047470   54.329887   77.728928
H   49.941490   28.116722   55.491302
H   45.706867   32.885490   90.739639
H   67.229286   94.342155    4.455449
H   68.720642   76.182373    8.450310
H   19.896275    1.545337   72.737915
H   47.756844   88.850571    2.888513
H   22.125946   76.463112   13.336305
H   27.413740   85.294136   99.361275
H   91.915962   70.812622   11.341886
H    0.214057   42.160427   72.800758
H   75.687073   42.362785   25.848852
H   62.079441   14.721569   40.156971
H   99.087692   75.163673   92.702858
H   62.373779   66.630157    5.772798
H   66.210785    1.771541   62.451477
H   71.830429   19.764425    4.734333
H    3.064915   80.090256    2.234825
H   95.745445   84.643723    9.088789
H   91.594040   71.912735   86.725883
H   56.580250   61.102509   63.459919
H   51.580276    3.893492   89.893265
H   59.731777   27.870520   37.302345
H   43.063374   53.502747   20.702972
H   15.287592   71.538162   55.097633
H   41.254642   59.013733   32.211727
H   28.899651    3.071969   13.436557
H   32.651085   17.892651   54.631550
H    1.544533    5.820478   75.368454
H    0.843971    5.396508   62.968758
H   50.838531   74.186287   49.170273
H   93.612122    8.424594   21.536736
H   37.872360   18.329449   82.091331
H   62.282154   81.778702   16.805576
H   72.408272   68.539322    6.587518
H    7.333977   71.786781   95.837555
H   81.280624   76.528564   53.870747
H   85.635559   51.125034   89.896568
H    9.290771   25.004814   23.537489
H   75.528549   69.002472   75.184952
H   39.517464   82.530373   71.299103
H   74.981056   91.216522   59.966122
H   59.680542   69.139580   88.294464
H   19.375153   61.169907   85.592598
H   47.741634   39.718933   23.881596
H   90.872452    2.627914   98.111389
H   89.717186   45.502071   23.956472
H   69.871452   37.739880   85.196671
H   76.533699   16.598690   66.500549
H   46.404873   73.422997    3.927266
H   31.818295   33.416649   66.895210
H   67.551445   34.772778   88.885246
H   86.546066   61.361977   71.106194
H   35.758400   95.306381   61.426151
H   20.197496   85.859055   53.085751
H   21.550415   13.847816   37.733047
H   89.221001   58.280785   80.519768
H   41.579185   49.688202   29.088959
H    4.406357   43.476051   84.968567
H   93.394066   39.329399   27.861853
H   58.669121   94.379517   29.406403
H   88.127060   38.832207   75.994270
H    2.083639   46.704235   52.356796
H   85.200371   18.041893   68.237961
H   50.502270   75.466843   55.126228
H   94.552094   19.010464   12.534434
H   64.061836    0.361755   57.127441
H   46.251656   78.069260   62.737644
H   21.048660   43.712921   37.810471
H   56.029076   33.929413   70.154633
H   25.958590    2.240963   50.761772
H    4.689413   64.361229   10.477158
H   35.621487   14.862843   82.942314
