100
TIME:    3.909, STEP:  3909
H   52.972321   63.546112   95.567215
H   92.533577   16.683775   24.578199
H   46.946884   55.132942   77.457329
H   82.132721   71.599236   25.897036
H   60.158493   86.081093   59.715393
H   67.408089   96.973183   65.868279
H   48.098942   25.291767   96.141823
H   12.646606   26.780262   49.283115
H   57.537254   10.459026   54.030247
H   68.018013   72.510811   60.764290
H   36.649368   23.529392   63.213863
H    6.643394   19.628366   14.682241
H   94.611267   25.207626   36.606285
H   61.530098   93.027229   54.717640
H   28.049809   20.859684   62.872143
H   44.352524   69.833611    8.559813
H    9.768628   40.520260   29.240042
H   84.671471    4.605874   64.025574
H    6.152446   42.341507   69.302200
H   87.203514   22.804274   82.475548
H   32.311111   67.064880   51.144806
H   37.139984   49.273239   86.390839
H   33.553246   62.830574   20.509148
H   55.853050   83.563995   16.756306
H   89.776398   76.156647   65.408669
H   28.732462   11.135171   22.780287
H   25.001040   79.985367   77.531227
H    2.712335   38.898605   95.981102
H   96.167816    3.747325   72.391853
H   50.881287   94.091637   94.143280
H   69.900719   72.582481    0.111306
H   12.573756   44.508965   37.388329
H   45.702465   82.481514   49.950546
H   43.266495   15.486103    7.071756
H   83.603577   63.429680   62.757629
H   12.434813   91.557831    7.193744
H   54.722374   61.379868   16.479055
H    2.427222   87.413780   98.289635
H   80.073029   96.248344   65.501106
H   95.009529   46.236069   45.586590
H   68.099335   90.311737   34.440044
H   80.302475   87.296127   86.449768
H   44.911343   86.941055   83.824669
H   29.742399   78.282837   62.935059
H   17.579218   77.661285   90.614075
H   27.656193   37.474995   99.039803
H   72.273727   37.423119   62.989777
H   56.448177   35.631393   10.444649
H   79.293259    8.706932   88.542419
H    7.860934   90.233727   10.264561
H   43.246387   92.254448   94.632690
H   95.103424    1.012855   17.442822
H   89.958824   44.674438   75.841591
H   86.169792   43.428024    4.310523
H   29.553391    1.163173   33.594296
H   98.457260    8.422216   59.555222
H   44.064808   76.754066   27.765982
H   34.983635    7.730615   12.867958
H   98.572166    3.933025   11.386673
H    1.066112   28.246771   52.429329
H    6.283010   96.786400    9.620140
H   60.176567   91.557663   18.483643
H   39.442364   40.540337   65.418602
H   11.463057   63.058495   21.010036
H   87.477455   48.639072   59.597324
H   61.209084   47.944801   77.314392
H   73.942001   83.506256   55.789043
H   10.344471   41.097610   53.075405
H   51.727417   68.910522   15.066133
H    9.583128   44.754402   93.501892
H   97.903175   29.431854   15.256626
H   51.651642   21.793228   42.820629
H   52.117615   24.951420   61.524399
H   44.159710    2.009652   70.894646
H   50.639088   34.211658   97.726234
H   18.067385   58.104118   32.903736
H   21.866468   87.740524   60.181782
H   15.632258   95.120323   30.319254
H   48.962440   42.036762   61.299126
H    7.820463   96.060890   84.157433
H   87.369400   69.722061   13.620875
H   34.621727   69.756302   59.909424
H   65.121437   72.506073    2.212930
H   19.083536   46.660835    6.390769
H   61.993530    4.373436   68.818726
H   61.329433   52.639877   13.236161
H   28.228003   19.136787    9.939651
H   18.877867   92.330406   55.090744
H   36.807480   76.525490   96.220222
H   20.730181   48.449951   63.952141
H   83.994965   84.506050   16.012735
H   67.522842   89.480034    8.010485
H   36.027885   44.807121   21.293497
H   25.047291   50.343193   90.382423
H   89.005394   99.584373    5.912248
H   16.789001   41.368599   65.543983
H   52.324158   92.010262   12.378738
H   21.214918   49.520477   93.486748
H   22.497490   53.700459   17.616783
H   82.013756   78.321022   21.173365
