100
TIME:    2.018, STEP:  2018
H   80.853424   36.960373   97.298477
H   45.135933   14.157133    5.295023
H   14.442434   19.086941   99.646339
H   81.815323   49.508995   29.549324
H   77.096008   34.509113   10.988832
H   96.724129   99.021843   78.595421
H   47.206402   97.601784   48.263084
H   61.275475   63.183483   22.907646
H    4.021706   92.270828   73.062035
H   19.693438   45.358849   86.712303
H   12.545578   47.441029   45.365276
H   78.819641   24.842363   49.285316
H   14.897780   39.615685   24.556416
H   55.161919   98.855812   10.810108
H    5.045893   89.771576   53.770088
H   20.385571   35.227547   65.530045
H   61.823273   15.450569   57.087433
H   44.268311   96.565132   29.585960
H   76.693993   63.013138   69.677216
H   38.149521   62.956783   53.727455
H   44.525650   55.319828    2.472748
H   55.846867   46.763466   47.426407
H   58.800819   78.209953   74.612625
H   31.547478   60.884464   57.200928
H   57.408440   26.128410   51.451141
H   37.405918   67.476578    0.025518
H   88.064491   58.593075   40.011326
H   62.267937   50.633129   33.476002
H   55.050339   32.180367   61.780235
H   78.372688   40.894638   43.813473
H   95.484138    3.009540   49.726414
H   93.175049   96.758842   12.447670
H   12.502430   20.835659   79.594330
H   63.366570   88.785172   86.736435
H   30.611061    6.374795   47.609741
H   48.012096   43.008755   13.702584
H   73.350861   30.633501   67.475830
H   80.582970   22.018963   64.844765
H   60.000343   37.429649   48.711853
H   73.119728   23.264589   96.805923
H   97.334099   25.426107   89.887741
H   50.254852    2.425416   97.609238
H   28.623053   75.601288   47.235191
H   50.496010   46.592812   78.042892
H   81.608635   52.269314   28.796164
H   52.052563    1.407040   91.364540
H   57.388294   34.600792   44.866890
H   56.347187   16.160563   93.440361
H   24.018721   65.317528   63.977638
H   68.212181   61.464649   42.522572
H   43.390659   74.818535   74.694321
H    3.204519   76.484283   41.584476
H   50.740860   33.709778   85.667656
H   29.960857   74.282967   20.865007
H   80.107483   35.413464   17.529982
H   96.091202   10.411127   23.929321
H   24.184519   31.318672   47.916084
H   75.792572   86.312180   61.576736
H   49.431503   24.034296   56.561241
H   25.851795   82.898163    6.213510
H   86.997391   84.725410   57.055607
H   27.288898    9.160692    4.045122
H   11.112011   69.540779   95.115402
H   81.612244   52.771912   72.354042
H   12.419204   99.669189   83.493866
H   77.376381   41.952217   65.505257
H   25.660936   18.130842   64.491409
H   40.968803   32.949402   62.674671
H   57.480621    4.785706   33.667152
H   71.266418   49.643402   97.483795
H   57.952003   58.095535   37.944706
H    7.574248   84.551483    4.369725
H   75.414124   18.488415   10.003391
H   85.779411   21.676153   83.272820
H   59.465950   31.515074   54.376202
H   73.367180   36.907410   60.142612
H   50.176727   51.640739   26.738432
H   26.789639   18.768175   25.886288
H   58.282425   47.590672   40.192680
H    0.558733   99.048889   47.068642
H   50.372784   50.158794    0.600311
H   92.735550   57.406631   18.033617
H   45.481731   40.939392   22.104282
H   88.990120   84.844460   79.107880
H   54.069824   22.656731   52.129944
H    4.844121   83.179756   81.919228
H    1.932379   56.627884   19.769468
H   88.440979   43.728516   74.762886
H   97.560738   81.813408   11.689772
H   87.920120   26.249084   96.357277
H    6.607511   82.397324   76.078201
H   27.599123   47.277897   71.972496
H   14.762840   88.098618   75.033035
H   42.275486   35.639095   62.880630
H   21.701771   68.970276   62.458061
H   60.600113   16.042917   63.216614
H    2.423352   83.489479   21.132477
H   14.274547   33.419739   23.747437
H   12.580330   45.549099   76.011856
H   64.565964   26.868725    3.323237
