200
TIME:    0.587, STEP:   587
H   20.133760   61.323376   21.273062
H   31.057110   37.943966    3.984128
H   10.864857   84.326286   62.439812
H   29.539381   81.029579   35.425732
H   11.525955   92.523911   48.669476
H   78.330078   43.396870   55.278645
H    8.386634   55.057922   56.367817
H   10.664702    3.870348   12.755390
H    1.520496   82.304085   39.254356
H   98.646179   70.038261   82.385399
H   24.288427    2.006803    3.927193
H   32.212692   51.284771   29.276016
H   19.690861   98.524071   47.069847
H   88.002686   54.670948   58.986782
H    2.868676   74.615814   42.124805
H   19.185997   11.669083   46.837482
H    0.531240   23.970224   98.584602
H   28.322443   99.848305   37.342659
H   76.570732   17.139341   47.591991
H   91.160217   74.939354   24.019283
H   62.249435   94.080193    9.942964
H   82.303917   62.077843   57.202675
H   84.614166   60.018486   40.810135
H   15.958076   91.222824   90.498001
H   18.328926   26.659815   33.028461
H   18.373850   77.736061   95.495956
H    5.615587   65.759422   63.033661
H    2.473883   84.443924    1.644329
H   25.683563   45.982491   36.306484
H   77.368874   30.060028   86.622589
H   12.908456   65.946419   16.619059
H   25.615974   71.639145    2.146390
H   18.738983   16.452179   77.417641
H   84.942131   63.956497   44.355492
H   31.336266   75.462692   31.579525
H   21.726414   42.010197   83.455521
H   96.223984   66.939507   88.559975
H   15.751110   53.731323   99.565651
H   40.227715   33.975044   52.144833
H   86.754967   38.261539   50.141693
H   80.607559   89.013954   13.042032
H   30.610949   35.830509   29.541861
H   70.453995   79.810608   63.213177
H   36.508224   80.087242   31.158684
H   40.633205   86.882103   56.886116
H   36.176662    4.807885   46.461746
H   86.513229    9.211770    3.787051
H   81.667969   65.545311   35.173111
H    0.500044   15.584006   61.416512
H   49.699768   19.367441   91.032265
H   69.953644   66.104080   14.116859
H    7.873523   41.670513   71.002098
H   61.535343   84.496841   12.464221
H   17.242178   89.506409   86.841766
H   62.511124   68.667763   79.551025
H    0.857361   63.801571   90.010864
H    4.440191   18.058571   45.932346
H   71.199753   66.646019   99.040382
H   20.859116   81.180679   15.519073
H   35.077698   94.040688   60.579582
H   49.295696    8.606342   32.098286
H   96.172813   17.246901   51.726166
H   81.007072   32.394783   73.178116
H   32.533562   65.647400   11.415028
H   76.926445   81.252090   32.119007
H   25.127758   30.042347   39.100571
H   73.213478   15.842581   93.004280
H   95.398232   92.238853   94.141556
H   28.865326   10.542455   57.587769
H   43.239502   47.677971   50.964062
H   58.312939   82.593788   82.563126
H   22.388140   14.700926   42.335838
H   88.506973   31.662106   87.876320
H   19.170185    1.337392   70.674660
H   83.370285    6.488701   51.296791
H   62.084595    6.825992   60.609974
H   93.960922   42.868183   67.237297
H   13.702836   12.288620   36.101891
H   14.168694   45.153015   27.253056
H   63.047234   88.731697   77.805389
H   58.095585   24.237396   95.982040
H   41.894516   62.349976   77.129967
H    9.645899   17.472599   80.126938
H   13.358418   73.206352    5.161020
H   26.551479    2.993222   47.948429
H   34.443233   73.633347   20.559391
H   51.407368    3.507180    2.566855
H   72.445824    5.629399   24.530272
H   76.306747   72.901817   78.420471
H   21.706112    1.600731   51.047955
H   26.696924   37.888329   79.211052
H   81.638351   91.579971    5.939289
H   63.743729   12.948580   85.847084
H   44.467773   81.967041   78.632660
H   33.917435   52.232361   82.391937
H   54.901985   35.467503   12.746463
H   84.012672    2.277118   13.273574
H   97.355637   33.830578   51.878994
H   29.155128   66.301994   54.110966
H   73.237854    3.565812   27.335123
H   25.348112   90.020569   85.279549
H    3.475471   81.906364   63.950531
H   30.372381   24.488514   35.351761
H   38.549629   68.580154    3.942292
H   24.878754   22.912586   36.337662
H    1.160527    9.783855   27.644821
H   82.096008   34.405426   54.644318
H   62.706566   47.597416    5.323690
H   81.615051   35.709530   15.911808
H   15.513610   23.222265    7.235571
H   51.759983   93.051392    1.039991
H   99.927223   72.071228   94.463730
H   51.067234   84.301353   86.387634
H   62.048729   11.916456   66.005768
H   52.270531   96.418076   14.605833
H   99.877243   95.646446   94.588463
H   18.308102   13.328817   88.225327
H   39.010593   44.076180   27.042320
H   32.040432   70.741463   66.389801
H   79.939987   53.600460   62.287220
H   44.176216   24.065319   76.149246
H    3.316779   19.259853   58.395214
H   40.602180    7.187541   34.323051
H   98.964867   54.832012    2.669558
H   66.533272    0.360509   81.336655
H   60.435162   71.846237   18.831478
H   86.761406   50.810135   57.653625
H   67.838577   90.291496   37.933247
H   96.737976   39.923080   76.982483
H   84.564125   22.504648   72.413254
H   62.616348   72.795868   16.672169
H   68.380936   89.492996   17.510098
H   91.304665   99.477203   99.956367
H   83.905724   21.899727   53.977940
H   21.568188   95.095810   40.471596
H   53.116005    1.181508   78.569473
H   69.467201   87.448753   72.612946
H   94.178139   53.386467   77.715607
H   55.383224   49.186317   71.468018
H   43.635910   92.447823   85.815659
H   67.796638   52.864262   26.119003
H   41.263885   51.554096   54.336021
H   43.850681   63.147842   87.680092
H   41.812798   13.966905   83.874580
H   56.612568   58.258827   60.415302
H   58.654270   67.954010   13.227116
H   52.938194   95.258186   44.797310
H   33.177399   60.502029   66.834129
H   74.461761   50.304455   94.494896
H   20.523283   92.463226   77.011436
H   63.989239   67.203064   48.724594
H   48.394398   97.508163   37.278133
H   92.295769   18.863682   91.283562
H   19.082689    9.107636   67.377594
H   27.372398   63.043015   67.030884
H   73.803131   44.389309   64.736687
H   62.943493   71.290123   84.864548
H   50.979496   31.092415   17.853636
H   96.500229    0.426856   89.736099
H   59.789322   42.785522   91.557495
H   57.364475   70.311981   74.189697
H   27.311817   21.258055   32.537853
H   80.155983   19.440828   37.087769
H   24.011860   30.373474   56.352856
H   55.631699   33.862675   13.234065
H   17.892187   53.398315   60.404961
H   68.924652   91.954475   55.900261
H   23.935341   46.720333   62.361622
H   98.787979   27.041756   36.037563
H   42.308376    7.841105   86.495789
H   72.735901    9.760453   35.946953
H   34.175514   52.558392   58.523693
H   44.377483   62.543953   80.660416
H   66.953033   66.238052   82.290016
H   55.309906   92.426208   82.915497
H   11.620765   49.535210   23.619656
H   31.853020   63.760929    1.423536
H    4.805392    9.531784   69.317245
H   66.727486   13.312826   65.076378
H   69.793991   58.177345   91.280045
H   75.082588   97.624252   33.651348
H   26.226730   30.529629   82.283974
H   49.658226   89.801964   12.941414
H   59.037640   25.862480   89.956047
H   90.010307   73.283913   76.967239
H    6.524744   39.151794   85.690895
H   43.434723   98.580826    6.953838
H   73.750374   81.922920   37.668491
H   96.569283   62.720810   70.509216
H   55.923649   56.385715   70.087112
H   64.396935   19.543896   76.823494
H   44.808285   94.359238   20.204554
H   11.808128   25.779280   65.755325
H   29.041344   77.379677   40.306389
H   72.986603   38.756134   20.681211
H   76.175308   11.234916   24.812304
H   11.767827   95.021217   15.178876
H   18.824883   90.509705   37.180599
H    7.285986   12.582829   62.498009
H    4.388575   23.236467   92.927879
