100
TIME:    0.554, STEP:   554
H   79.857826   71.216713   98.638809
H   85.859688   34.781895   12.946380
H   89.282928   13.761083   16.834999
H   81.569595    9.824842    9.796077
H   90.208923   17.163063   50.683708
H   19.425598    0.610689   33.609837
H   23.935780   98.745415   33.776295
H   76.342987   36.529812   57.328461
H   40.009621   33.028641   65.216164
H   59.700630   24.340012   29.384027
H   48.723297   88.534042   86.385246
H   34.696041   51.459785   53.494499
H    8.023009   28.189774   70.065117
H   27.650928    3.369158   99.398720
H   87.240486   20.538305   24.141672
H   79.248749   63.281437   87.053207
H   79.525780   18.633896   23.795244
H   12.982997   67.759613   80.340134
H   53.890961    1.592569   92.550262
H   77.653114   93.916565   53.983025
H   31.401398    1.064193   42.206573
H   15.469094   44.831154   72.084236
H   78.347328   90.116570   16.499138
H   67.568924   43.326115   65.931137
H    9.769899   42.238148   40.649612
H   44.118748   11.102445   37.247017
H   14.306345   19.447521   10.959631
H   85.796013   82.298035   85.086502
H   23.217453   99.355522   30.983696
H   22.236090   77.128281   27.429657
H   37.894535   71.722633   65.572929
H    0.737360   37.205086   47.977516
H    9.380337   27.948584   47.705650
H    1.509594   22.951782   48.411736
H   67.001289   17.042191   58.461967
H   20.723351   28.005373   18.738096
H   32.935108   84.246925   52.118298
H   41.092102   48.814434   61.534359
H   25.814068   68.681725   89.028336
H   11.013184   60.320446   81.622063
H   97.382736   75.189034   55.393742
H   81.830803   36.721809   28.827871
H   16.012762   66.822113   41.488991
H   43.982376   22.055830   34.899178
H    8.600449   10.033938    3.514383
H   70.875969   73.618706   85.490807
H   41.929798   55.627247   32.357124
H   56.269001    1.087298    2.856332
H   81.223503   86.567062   22.374304
H   37.508938   39.181629   44.916771
H   43.502354   16.158422   59.258167
H   32.055473   12.331551   37.693184
H   20.371172   25.221008   70.695717
H   63.860088   98.163216   56.262775
H   96.655136    7.071025    5.107122
H   94.259415   11.949717   73.767334
H   31.372887   73.561470    8.677473
H   84.806824   24.568535   99.284744
H   33.969559   62.176483   68.953598
H   22.460754   70.370941   47.852501
H   94.647049   52.806267   71.200653
H   79.248596   22.788803   70.289551
H   11.809986   69.374855   95.551369
H   81.081917   44.808105   12.098288
H   54.312614   16.596779   47.154449
H   67.312263   14.732105   78.942665
H   43.120506   67.513641   93.808823
H   42.097298   49.221298   92.687004
H   84.513573    9.979408   25.486233
H   41.608833   76.008934    0.565786
H    4.439604   57.709888   55.503056
H   28.287519   33.139442   97.182503
H   70.869888   90.903999   47.543858
H   17.996979   14.321095   70.282738
H   88.882492   29.431974   43.395191
H   38.756130   43.079079   58.651379
H   17.254223   78.527946    0.837060
H   58.008255   14.495663   45.036182
H   88.106926   51.879734   23.865753
H   72.356308   78.783058   73.193604
H   21.723186   35.013042   13.100107
H   82.890450   47.845596   40.453842
H   52.848629   16.504213   82.665680
H   88.279755   59.568089   12.828346
H   25.354628   14.230126   94.048470
H   38.542171   29.403191   80.254631
H    4.155142   63.072609   49.959988
H   64.873474   60.939400   89.981056
H   67.179878   63.326256   23.667984
H   17.355118   86.490005   44.017315
H   46.694523    3.346703   45.161205
H   19.277346   37.171776   44.079231
H   20.829422   44.230118   61.773796
H    0.773281   46.837372   64.170586
H   47.013981    0.104813   28.816257
H   39.679733   73.854362   38.834236
H   18.628534   99.473503    5.327792
H    8.899257   20.954651   47.171707
H   82.320854   39.238369   98.646492
H   73.646744   64.475304   44.328110
