100
TIME:    0.244, STEP:   244
H    0.822147   99.645363   98.922623
H   94.482887   17.974030   93.391998
H   83.956696   91.458458   20.474907
H   81.517563   22.597631   26.788443
H   92.985565   92.315201   59.089317
H   24.232689    0.948087    2.909182
H   40.182323   77.814171    9.533734
H    0.708376    9.711664   85.790779
H   47.630013   62.833786   84.728340
H   68.172462   19.890053   17.243906
H   77.558746   76.060440   16.246498
H   46.528698   35.920998   75.560997
H   27.741894   46.945114    0.877755
H   43.000507    4.324959   75.809090
H   83.470497   48.227165   39.043621
H   91.712891   90.395149   12.785542
H    4.449194   98.133217   95.570671
H    6.358836   82.834839   91.087204
H   49.063766   88.588928   76.216797
H   86.044533    0.415972   32.834190
H   49.797241   31.926491   50.619278
H   85.744057   44.421989   98.478889
H   82.486275   92.637779   25.369492
H   96.371262   39.608158   88.953140
H   20.856363   66.823219   38.360184
H   45.539173   20.340080   66.302116
H   41.038425   32.333866    4.808127
H   11.953163   67.828278   74.840836
H   16.476883   71.229607   45.637848
H   10.349936   84.800705    2.786314
H   25.700014   43.923103   90.103874
H   81.163727   45.769157   76.675789
H   87.544861   50.629799   19.778402
H   88.411537   51.361511   61.471886
H   74.706825   40.475723   39.586006
H   93.769646    3.652994   19.804762
H    3.202182   95.599464   27.691418
H   53.903915   54.488338   39.659435
H   39.751148   75.299309   18.740112
H   40.211346   89.340675   57.232368
H   18.567341   64.550758   48.087910
H    9.691849   22.807856   14.263579
H   13.343139   64.963135   19.097790
H   63.778366   16.860861    4.588966
H   35.490440   22.264828   76.987122
H   74.835167   67.791069   84.275139
H   38.656483   38.903538   29.708197
H   56.252445   97.894760   83.675293
H   72.160393   12.241665   34.740555
H   31.007246   34.463230   66.598038
H   43.525990   46.087212   55.989590
H   16.990885   41.097603   58.044975
H   13.940620   23.423523   88.698952
H   71.035889    3.220969   42.582966
H   21.334404   79.895508    2.476612
H   93.871536   12.275623   84.320465
H   11.721041   82.506325   79.193825
H    7.890620   53.843895    7.269911
H    9.521393   49.078491   92.751358
H   42.916618   46.543068   56.669632
H   75.092300   67.222153   95.372101
H   90.251099   25.674240   84.314667
H   90.783150   90.514229   16.818817
H   59.795441   43.121780   20.515722
H   42.006935   41.356403   18.284086
H   86.356148   30.143177   60.613049
H   67.992027   56.796543   78.842392
H   63.511024   31.492382   77.867210
H   69.064659   32.254036   44.929821
H   35.329460   60.417572    1.217670
H   14.284277   78.802666   59.221012
H   53.847462   43.427681   74.486885
H   91.082138    6.238422   55.493000
H   24.820328   33.938686   88.706963
H   73.934982   28.990881   19.894825
H   31.426649   23.210295   79.511063
H   89.108582    5.395827   95.350281
H   43.443893   34.766018   27.915134
H   73.249290   52.786358   20.409142
H   87.559250   95.665230   99.900452
H   15.656708   31.805880   94.572266
H   59.631489   45.821060   66.377625
H   33.234753   11.329997   53.139618
H   66.955902   33.040989   41.143471
H   40.449295   33.621628   24.099285
H   45.678745   18.015322   58.727703
H   83.450920   85.612129   35.178036
H   59.883087   85.758888   93.202339
H   60.746773   80.586845   26.204567
H   44.762672   99.247421   32.934399
H   34.008060   86.606720   38.614574
H   96.340157   13.857420   38.173546
H    0.939991   34.942322   37.791557
H   70.811989   28.032614   43.270069
H   52.373325   27.873516   21.693722
H   14.075027   86.096184   54.846046
H   43.234520   81.683128   23.156319
H    7.761108   18.315186   52.131348
H   97.088615   37.902081   24.613270
H   54.394726   72.436272   74.185287
