100
TIME:    5.416, STEP:  5416
H   51.060219   25.346722   94.187515
H   50.898079   98.347748   19.601250
H   72.854675   63.552673   59.771427
H   82.385666    9.510666   43.293877
H   46.660431    6.873718   18.855137
H   44.035351   95.340538   15.110661
H   69.116249   27.051708   13.991334
H   94.199371   57.153851   10.914157
H   20.492317   65.567062   59.170212
H   26.834700   94.149101   19.773771
H   96.471909   84.167191   18.053307
H   49.128639   95.166924    7.412603
H   98.460800   34.074776   86.860771
H   86.913216   88.382240   69.400993
H   46.378059   86.248734   90.429962
H   83.757812   38.025955   83.465546
H   88.584541   40.196659   66.428192
H   16.885153   31.294403   11.779520
H   29.624474    5.559575   48.696980
H   46.599281   90.799355   85.079109
H   42.883598   17.037079   10.245148
H   81.617538   51.273804   58.055847
H   13.432258   50.574242   77.391861
H   15.833149    1.619356    4.833342
H   35.876129   56.644783   76.538246
H   21.857138   66.549927   81.121277
H   95.050934   17.339783    7.427217
H   75.554909    9.240257   45.797905
H   28.937004   40.473606    1.155715
H    8.667231   56.793755   13.945156
H   29.208378    7.719162   80.882256
H    7.726812    2.875796   97.877831
H   51.853657   72.222084   85.713005
H    6.939958   77.378685   43.583092
H   46.144730   49.512070   54.523682
H   43.440952    9.632830    2.398918
H   99.264282    6.189190   35.224834
H   40.138538   59.841045    4.634462
H   16.460278   63.411491   19.461584
H   53.066219    5.155064   64.155235
H   65.106430   42.018326   69.944313
H   44.861259   54.931961   57.243977
H   57.892017   95.978088   92.677589
H   33.513668    3.550183   10.284175
H   86.857674   18.205086   19.572302
H    8.212568   66.218735    5.164267
H   84.047165   19.378525   77.454430
H   56.528660   51.153015    3.689326
H   23.345825   83.896667   28.427040
H   39.467556   13.166334    4.862956
H   43.131413   46.763870   10.520333
H   68.339973   61.175976   18.511131
H   21.215626   53.412537   88.316307
H   51.267586   18.834877   70.809654
H    9.564720   33.237080   46.414005
H    0.341325    6.836617    8.253387
H   39.602325   33.270531   71.094093
H   22.768921   65.413307   74.051376
H   17.425619   67.608421   95.693626
H    1.619652   44.080402    9.566658
H    1.345623   26.703342   92.122307
H    6.692895   77.530716   50.298592
H   41.752773   37.705368   62.079071
H   14.946166   71.266388   80.096039
H   47.293633   28.276825   99.937096
H   68.632561   73.027702   66.419518
H   53.032867   35.607922   28.547348
H    6.245572   27.284571   25.118719
H   26.834562   60.627113   20.550011
H   40.113205   20.550850   90.328583
H   50.050591   26.895966   97.178230
H   27.393463   71.778412   53.156723
H   53.858215   50.407593   22.881310
H   10.983273    6.640829   81.353477
H   23.298838   36.361691   11.967392
H   53.698128   54.688522   31.501753
H   58.693455   57.124096   86.832985
H   86.433853   96.581078   13.544299
H   21.230457   37.610226   78.110313
H   33.916283   13.983256   54.327972
H   16.854364   85.312668    3.691026
H   47.696861   79.594421   33.892776
H   60.450249   97.694031   45.736591
H   22.762442   75.617844   68.748260
H   88.614494   10.110127   22.731819
H   26.641483    7.992019   17.886871
H   28.877127    9.565613   81.799255
H   43.133171   71.680603   39.422226
H   68.080673   92.618431   83.894905
H   87.491486   86.446457   17.826857
H   45.667717   65.878448   47.837811
H   79.028053    2.814643   36.723351
H   32.629395   90.026863   37.832172
H   70.702766   41.755566   91.991768
H   62.952065   64.598381   40.539219
H   41.261002   81.860016   87.705338
H   32.705345   78.493904   25.710190
H   26.745214   62.351685   69.364998
H   50.707275   60.196545   91.389839
H   75.618896   39.650684   76.000687
