100
TIME:    1.439, STEP:  1439
H   20.008650   90.057755   97.828568
H   61.241844   82.765816   68.771935
H    4.489875   77.431664    6.443522
H   81.718140   73.363060   61.288311
H   82.282059   88.099724   26.687050
H    5.701988   99.649117   21.254438
H   77.551628   58.507000    2.984474
H    6.783737   13.094299   76.070290
H   18.254631   47.939453    9.506606
H   35.514915   37.045265   64.042107
H   66.402756   24.143559    1.138087
H    0.915746   95.820518   90.499840
H   51.726799   74.645821   82.103813
H   83.830971    0.640605   66.749702
H   98.003197   41.488804   81.601456
H   43.665634   85.870842   13.591350
H    8.373995   77.160355    4.373328
H   31.895119   24.722275   49.658981
H   67.673622   38.721748   39.174114
H   53.747429   75.254501   14.306406
H   78.884338   12.959923   18.187717
H    0.328428   45.999252   96.726295
H   66.531303   82.918922   91.177948
H   85.342812   53.940281    0.200808
H   78.117302   72.048256   47.179497
H   40.060787   84.731018   54.294556
H   37.992126   82.660172   28.521620
H   11.123520   23.607357   14.337703
H   42.460693   79.649445   89.150566
H   56.170742   55.224747   97.785423
H   72.707924   51.087082   95.542511
H   56.616489   12.755818   66.048637
H   71.719803   63.198128   27.433439
H   38.902901   41.846901   11.128782
H   45.003227   50.142830   12.354317
H   97.669800   97.524307   15.692767
H   17.818176   51.837257   21.852728
H    4.515911   32.616352   23.987965
H   86.028458   49.789589    4.204970
H   27.656050   77.469292   51.252254
H   36.901222    5.558832   76.246750
H    2.292067   76.441795   70.406769
H   23.635786   72.129196    5.414323
H   87.469810   36.887741   21.432154
H   31.833275   75.113937   79.249100
H   59.522419   90.363503   89.014473
H   51.274586    3.365587   39.919380
H   56.316265   10.199255   57.615093
H    7.095557   13.271873   87.071915
H   56.070225   52.651897   83.019127
H   43.434834   30.717760   68.589447
H   75.065804   30.210260   79.594559
H   38.729897   30.352539   19.294346
H   43.367725   83.727409   95.316422
H   26.200996   84.655548   12.617050
H   95.366745   11.019627   43.639847
H   87.478195   48.025352   92.848228
H   18.906494   40.992165   76.489944
H    3.768637   99.569138    1.010113
H   64.058060   38.394535   22.680992
H   50.474163   11.652562    2.200781
H   47.838226   14.551048   30.244415
H   71.840240    9.024067   34.837257
H   41.853004   49.622292   88.071220
H   89.438454   45.913883   29.572126
H   12.945141   70.736122   31.270262
H   72.114822   98.113770   36.537975
H   80.964119   99.834396   34.995121
H   28.621620   46.388962   69.982033
H   59.535431   20.520227   98.703003
H   76.337303   97.490746   44.888889
H   55.314236    3.767477   61.979698
H   13.166073   47.126545   24.850338
H   98.519249   58.318024   17.684547
H   31.552242   30.691225   10.483639
H   59.680622   99.798485   99.103813
H   97.606499    1.823792   16.496546
H   99.587158   56.629105   93.909882
H   30.527781   49.286961   33.734413
H   28.954361   30.582598   96.950142
H   39.042103   44.168774   65.994270
H   49.293156   53.625320   66.449173
H    8.847838   31.274244   66.957520
H   49.161022   35.298687   31.993233
H   82.261795   58.875153    8.257530
H   18.171345   61.913868   41.711876
H   63.262276   98.725891   92.160080
H   79.120224   90.084915   80.784813
H   85.545357   14.051219   16.426449
H   39.111496   50.072227   75.657249
H   82.912331   51.132648   63.850780
H   84.758385    3.732949   60.939011
H   77.613197   70.746994   30.240316
H   86.312538    0.518079   23.843433
H   31.713852   20.832474   49.152794
H   12.777130   38.905937   93.122543
H   48.381088   50.261654   54.430984
H   12.148664   28.489899   33.012733
H   40.161278   43.053257   24.512974
H   28.608170   41.741413   59.089668
