100
TIME:    6.295, STEP:  6295
H   91.617508   44.738548   93.382767
H   26.622242   45.981495   75.026222
H   87.970535   26.791100   49.450527
H   82.533203   73.296112   95.111938
H   38.787308   77.329437   95.022751
H   30.401569   94.388252    2.160849
H   23.049706   86.406090   82.730278
H   25.111710   33.199345   30.207798
H   98.884758   81.054749    3.838382
H    2.820883    6.770723   54.192448
H   14.709457   19.535284   33.383507
H   15.577332   39.226307   44.843727
H   42.369827   80.919106   99.518730
H   43.389732   85.672920   36.292622
H   57.065071    7.732391   48.175404
H   48.415939   61.145302   10.500817
H   17.900795   98.336998   46.447029
H   35.682735   88.524490   81.307655
H   43.312489   42.437119   95.008041
H   22.919556   72.129189   44.925468
H   90.722504   29.530193   86.385811
H   65.888123   52.440689   83.200897
H    1.695039   43.425392   52.243469
H   34.161465   12.134737   39.551991
H    4.439610   86.934692   83.029884
H   17.850161   40.563911   98.464165
H   19.253639   80.802017   24.869345
H    1.388530   50.269020   74.853531
H   48.049782   20.223652   59.603943
H   42.370823   35.038719   83.823288
H   63.805588   86.540352   11.338570
H   63.227390   78.586502   16.504341
H   13.768074    7.910519   64.900269
H   44.080956   96.823624    6.553520
H   24.291122   83.050240    8.043006
H   19.851221   78.480003   99.634743
H   83.571205   73.998657    4.486766
H    3.809829   43.752781   66.661003
H   79.358978   44.258476   34.279655
H   70.274033   22.866230   33.311642
H    5.033417   72.178093   90.653175
H   69.705643   66.288986    1.331326
H   65.462067    1.249641   56.167686
H   77.386078   18.304159   96.227867
H   10.611504   83.523209   94.790024
H   96.868523   82.984329    8.735338
H   90.914352   67.181473   85.890877
H   56.575603   60.206436   58.076847
H   49.037422   11.098625   93.363388
H   57.905781   26.545992   43.385681
H   43.069347   61.901932   19.785992
H   11.058628   79.610779   60.808601
H   39.449886   58.509277   37.264912
H   30.914154    4.491580    9.597716
H   39.578056   10.268277   53.891460
H    1.436174    5.911994   78.330139
H   95.328224    7.907004   54.694359
H   57.316803   82.402275   51.411118
H   86.750198    4.748208   28.215462
H   43.613197   11.642095   84.565819
H   56.794209   85.824966   23.588512
H   75.496071   69.349106   10.524127
H    1.427468   77.723427    1.803406
H   75.306808   76.054642   56.233059
H   82.182693   58.073910   81.794746
H   14.635014   29.329857   18.393370
H   82.508621   65.994324   70.984695
H   45.527122   77.554848   67.139999
H   70.645393   97.467789   65.422699
H   57.918266   64.764091   88.477661
H   22.138042   67.089294   86.636024
H   54.914860   42.606277   17.511848
H   96.544922    6.931053    0.341712
H   91.632790   51.007938   29.125483
H   65.676506   37.615757   78.601578
H   74.477379   11.022797   72.354889
H   38.503506   80.952660    2.384279
H   27.730877   39.105713   62.090668
H   63.379162   35.028324   87.914833
H   90.812698   66.101204   78.601341
H   34.055862   94.406326   56.226276
H   13.669170   85.294861   60.363850
H   16.047203   12.393025   29.447365
H   83.235237   50.836082   88.466270
H   45.815285   55.130348   37.522659
H    6.408830   40.280060   78.927048
H   87.583534   45.655006   23.713369
H   57.269920    1.341066   30.308449
H   86.321640   43.676308   76.705818
H    9.775746   50.283878   49.247093
H   81.639977   13.344151   66.400681
H   44.065151   68.923523   53.468826
H   88.975204   16.399906    5.806590
H   55.654018   95.083565   51.261154
H   47.755730   85.861771   60.738407
H   13.862823   47.148529   42.304108
H   62.934807   28.936834   75.158035
H   26.126520   97.936035   52.508118
H    8.833814   63.985569   17.764549
H   30.217836   17.095390   91.322914
