100
TIME:    6.206, STEP:  6206
H   97.636307   52.900322   93.464249
H   29.079941   41.158443   69.414833
H   86.440033   20.388317   50.495533
H   82.518265   76.962799   99.989990
H   39.584473   70.195694   97.435974
H   31.782009   94.484673   93.347130
H   27.714207   80.396797   75.770363
H   32.106934   25.499981   38.379757
H    1.072561   89.611710    9.440774
H    5.252100    5.492730   50.707737
H   22.988022   15.954155   41.956085
H   18.974449   34.765171   51.178947
H   48.049118   86.300987    8.362236
H   47.796547   85.947243   29.519436
H   55.984077   15.682312   52.455242
H   51.994354   68.929543   17.888725
H   25.057625   92.449928   38.345009
H   33.779453   92.855255   84.393105
H   41.926617   38.703209   90.318756
H   25.317162   74.019569   38.865929
H   96.003891   38.390675   88.801750
H   57.355606   52.322540   90.780075
H    2.883439   44.149223   54.789780
H   42.431202   11.070040   46.162212
H    7.622668   93.992386   82.372597
H   18.255873   43.195099    6.833371
H   26.928219   84.501297   23.103224
H    8.897939   46.114799   71.912033
H   46.114586   12.149052   63.811127
H   38.958088   37.241447   76.747940
H   60.302544   78.559196   18.379967
H   57.607853   81.045898   24.743523
H    7.498888   14.421946   56.882446
H   40.320564    4.979897   10.302740
H   26.506073   89.788795    2.627949
H   12.114765   71.509224   99.914497
H   75.034615   77.257935   97.473976
H    7.488232   45.381741   60.380497
H   83.115295   46.197746   42.904518
H   78.657166   31.198097   26.309225
H   11.115746   69.123878   88.556374
H   77.206055   65.939972   96.787468
H   64.696136    0.715744   49.739441
H   83.069443   16.810324   87.525597
H   18.331577   87.035080   87.174179
H   98.017418   81.286789    8.373762
H   90.219040   62.341446   85.036674
H   56.570850   59.289764   52.570026
H   46.436111   18.469345   96.913284
H   56.037807   25.191015   49.608864
H   43.075459   70.494202   18.847931
H    6.732851   87.869110   66.650856
H   37.603642   57.993225   42.434261
H   32.974968    5.943826    5.670626
H   46.664268    2.468590   53.134357
H    1.325325    6.005613   81.359909
H   89.685600   10.475213   46.229744
H   63.944000   90.807137   53.703476
H   79.730530    0.987307   35.047722
H   49.486008    4.801047   87.097191
H   51.180103   89.964249   30.527378
H   78.654854   70.177505   14.551202
H   95.385490   83.796547    7.906403
H   69.195663   75.569824   58.649677
H   78.650452   65.182419   73.506676
H   20.102112   33.754326   13.130902
H   89.649155   62.917263   66.687881
H   51.674934   72.464943   62.885288
H   66.210060    3.862741   71.004211
H   56.115479   60.287453   88.665070
H   24.964447   73.144760   87.703438
H   62.252987   45.559998   10.995669
H    2.347914   11.333115    2.623843
H   93.592430   56.640377   34.413475
H   61.385540   37.488781   71.854874
H   72.373787    5.318682   78.343811
H   30.420433   88.655418    0.805836
H   23.549496   44.925560   57.175270
H   59.111546   35.289745   86.922112
H   95.177414   70.949379   86.268791
H   32.314186   93.485580   50.906864
H    6.990411   84.717560   67.809135
H   10.417481   10.904792   20.971207
H   77.111870   43.220238   96.595451
H   50.148766   60.697601   46.150238
H    8.457355   37.010597   72.746643
H   81.639427   52.126030   19.469519
H   55.838554    8.462927   31.231232
H   84.474716   48.631767   77.433723
H   17.644659   53.945812   46.065903
H   77.997734    8.538414   64.521164
H   37.480053   62.229782   51.773323
H   83.270111   13.729337   98.924088
H   47.052921   89.684029   45.260010
H   49.294380   93.833420   58.693211
H    6.511776   50.663116   46.901047
H   69.999290   23.829615   80.276459
H   26.298311   93.531937   54.294609
H   13.073421   63.601925   25.219467
H   24.689966   19.379261   99.896172
