100
TIME:    1.561, STEP:  1561
H   11.758507   78.869705   97.716873
H   57.848198   89.379982   76.467674
H    6.586971   86.208977    5.011189
H   81.738617   68.336815   54.600613
H   81.189316   97.878563   23.379036
H    3.810055   99.516945   33.336559
H   71.157127   66.745079   12.525093
H   97.194771   23.648548   64.869209
H   15.255638   36.209686    1.826923
H   32.180840   38.797005   68.818901
H   55.054611   29.052525   89.386032
H   96.259781    1.935718   81.815605
H   43.966835   67.264687   69.977531
H   77.790169    0.264476   76.033363
H   99.486870   30.592030   75.737503
H   38.760391   75.200310    3.464577
H   98.565414   85.228409   15.480756
H   34.502251   18.789444   45.429489
H   69.574287   43.840141   45.601192
H   50.460823   72.663193   22.612741
H   71.644684    0.814148   14.876446
H   12.026780   46.160278   86.338722
H   64.902428   81.926704   87.687500
H   74.007698   55.403477   91.140518
H   73.753777   62.371964   48.079567
H   39.501385   81.095367   42.859848
H   27.471653   77.589249   30.942595
H    0.829875   29.301907   18.370333
H   45.113434   90.718353   83.383415
H   60.848873   52.205276    7.483922
H   77.507057   62.027542   85.888397
H   64.319672    9.385209   54.754478
H   80.312820   54.271889   38.424164
H   44.057594   30.666298    5.989260
H   41.970726   40.920601   19.782921
H    8.277383    7.108088   15.273313
H   29.519554   47.369484   31.465887
H   99.473549   30.383396   32.596806
H   80.544266   47.185249   92.512161
H   16.165030   66.048546   60.851452
H   28.564171    9.744975   79.121017
H   91.327393   81.916679   76.138550
H   24.686644   72.860794   14.226342
H   79.679131   38.932678   33.360592
H   21.250702   70.299911   89.688797
H   57.948460   92.690468   89.509651
H   52.562794    9.947024   40.961861
H   56.322781   11.455351   65.163765
H   10.661427    3.168139   82.205765
H   58.628956   54.508816   74.485680
H   43.425526   18.939127   69.875793
H   80.994911   18.889574   71.586075
H   41.260704   31.059937   12.208736
H   40.542789   81.737389    0.700035
H   16.488243   95.350281   13.652317
H   95.519394   10.891411   39.486679
H   95.213028   44.505119    4.451481
H    9.821873   29.470676   73.347610
H   13.390175    4.724085   91.644485
H   56.007687   47.772205   19.211021
H   58.169903    5.979188   92.688316
H   43.508209   13.415257   24.723923
H   80.114929    0.704337   26.467628
H   50.231010   50.285942   84.759483
H   94.280403   36.169483   40.934132
H    5.450644   64.671120   38.483852
H   62.326675    2.331762   42.427990
H   72.536781    6.811941   40.827427
H   34.702446   37.622818   62.330765
H   62.006668   26.656435   98.446106
H   72.463371   89.189995   43.425694
H   45.255230   99.718338   70.911736
H    5.211150   41.092258   21.721966
H   95.834862   50.597153   10.433723
H   37.433914   30.864817   19.732395
H   62.565128    7.617649   90.894279
H    8.683283   91.249985   18.654673
H    5.318949   48.651337    0.646980
H   36.375908   48.929539   35.095222
H   22.971268   23.938181   86.439705
H   41.429569   45.430920   73.286049
H   58.447437   54.422073   56.247757
H   16.567081   33.310638   78.577454
H   57.553921   45.738384   20.849861
H   76.321518   51.243637   96.431107
H   15.363163   66.395103   50.183891
H   71.410378   89.855499   97.977493
H   81.084183   80.317245   79.517082
H   88.077095    7.258574   15.428314
H   28.324776   45.052498   80.018913
H   87.905067   57.719822   66.427200
H   93.785149   12.908175   63.263184
H   85.441109   74.403122   39.678574
H   98.103737    7.918388   32.069252
H   29.604225    9.904114   51.956322
H   22.853821   34.088188   86.821121
H   38.697189   57.263027   47.414719
H   12.596604   29.528656   31.060650
H   34.349449   43.579151   14.293873
H   36.184769   38.607456   47.339424
