100
TIME:    3.479, STEP:  3479
H   82.051910    2.979367   95.960892
H    4.494959   93.370239   97.454330
H   39.555603   24.196922   82.502953
H   82.060547   89.314690   49.468006
H   64.009964   51.614697   71.374786
H   74.074348   97.439034   23.282778
H   70.634621   96.255592   62.515266
H   46.443756   89.579880   88.763557
H   68.107475   51.801758   81.096733
H   79.769264   66.336647   43.924767
H   76.646927    6.227720    4.634951
H   23.056435   98.075165   45.289680
H   21.963554   51.223099   79.344353
H   82.821449   94.352608   21.993259
H   22.818829   59.268936   83.540352
H   61.641495    7.443020   44.254250
H   44.346718   12.080281   90.095444
H   75.485680   25.517052   78.932800
H   99.455238   24.301271   46.648617
H   98.790733   31.935934   53.199120
H   57.827927    9.871368   62.814041
H   95.915466   48.702408   23.009262
H   39.294365   66.327736   32.813080
H   95.804680   78.406830   48.693333
H    5.155721   10.256607   62.233009
H   30.705767   23.947397   63.083321
H   62.081799   97.858292   69.001564
H   38.993954   18.827652   81.769371
H   86.817993   64.734055   92.718697
H   34.392792    4.734376   59.959015
H   52.977039   34.024395   34.131538
H   85.423470   56.388161   77.195610
H   15.413202   13.942219   11.212750
H   25.097691   54.893135   25.185829
H   94.291901   95.934258   36.574844
H   75.042610   57.779758    8.678010
H   13.480718   77.126938   82.596977
H   20.199074   95.280754   67.943718
H   98.221527    5.616865    7.171563
H   35.510700   86.490967   11.754335
H   97.487305   75.555420   24.309431
H   18.948479   67.999405   66.247589
H   41.207500   84.362473   52.764759
H   57.201218   71.078552   20.892458
H   54.877445   94.628754   53.818417
H   33.203754   29.273396   97.294502
H   68.914352   14.037461   58.859451
H   56.425213   31.202826   83.838753
H   66.721848   44.318275    5.694375
H   98.842888   83.692131   40.338184
H   43.279194   33.768906   90.098846
H   74.205750   40.914070   45.672726
H   81.042046   42.181152    0.813879
H   96.129814   50.445312   85.335663
H   63.790146   63.475327   29.937307
H   97.919235    8.874945   74.193436
H   16.805971   89.161446   86.869225
H   67.002678   48.339188   23.944805
H   64.656914   85.764587   44.398724
H   29.440796   95.194809   64.659554
H   79.158485   16.783146   43.145153
H   75.438103   95.560043   37.941116
H   10.249173   69.882378   94.904991
H   81.936577   60.719398   32.685833
H   70.411568   82.982277   19.553328
H   87.624794   69.321449   51.889435
H    8.441544   68.638397   35.029156
H   40.047539   16.504904   32.518917
H   30.294998   99.807587   42.036243
H    0.871462   23.125818   94.407349
H   11.557892   58.688744   20.415432
H   87.107651   36.064011   11.337405
H   80.153961   46.219807   72.548088
H   53.627636   29.221008   96.444267
H   29.908560   33.598179   65.129799
H    7.901332   30.543550   61.835697
H   82.825874   25.009708   52.577259
H   95.430069   23.236853    6.571005
H   28.343618   43.299809   56.499550
H   28.908730   19.479488   21.202133
H   78.957840   65.273514   87.920807
H    2.356972   66.948074   95.865234
H   37.915226   65.328033   61.257450
H   89.499786    9.864330   45.663490
H   82.930573   31.271046   10.502344
H   71.224731   36.843597   83.375443
H   99.509254   50.401283   89.435379
H   11.957357   26.757034   59.562256
H   27.883385    0.467578   99.737068
H   58.749027   66.142044   48.582344
H   66.397614   61.286068    6.931924
H   35.704285   57.145355   99.816566
H    8.465127   31.904364   88.040855
H   83.486427   24.259315   61.388428
H   96.439323   38.102253   96.031456
H   81.272705   58.349190   87.753914
H   86.455933   67.333290   37.109383
H   19.636930   45.859283    0.369397
H   42.981804   51.846897   53.634926
H   55.303860   89.357094   62.597572
