100
TIME:    4.332, STEP:  4332
H   24.366550   24.754761   95.179947
H   80.836433   39.608902   51.252975
H   54.217842   85.565758   72.493843
H   82.203720   54.172173    2.710592
H   56.369720   19.986406   48.245804
H   60.848797   96.514915    7.758217
H   25.930630   53.856014   29.221048
H   79.399635   63.373867   10.443472
H   47.139107   69.789230   27.402620
H   56.458061   78.584465   77.327087
H   97.302948   40.549824   22.469658
H   90.499474   40.831291   84.572853
H   67.633255   99.624886   94.572754
H   40.585350   91.723427   86.906998
H   33.195259   83.075867   42.537342
H   27.344559   32.836601   73.447205
H   75.753426   68.497665   67.747398
H   93.707726   84.035393   49.357800
H   12.740730   60.088066   91.589478
H   75.804924   13.821268   11.275278
H    7.209686   24.952938   39.665535
H   77.693405   49.834778   50.368454
H   27.905586   59.390343    8.405913
H   16.551796   88.637207   85.341019
H   74.647125   42.610718   68.532631
H   26.798620   98.588928   83.056587
H   88.525719   62.403103   85.922035
H   67.019318   58.642822    9.963202
H    5.365819   42.124660   52.395912
H   67.101364   83.622490   27.769802
H   86.546791   10.514724   66.644890
H   39.282238   32.823151   98.229134
H   75.498268   51.532341   88.057724
H   61.138916   76.720825   89.251488
H   73.089249   31.454247   88.517258
H   49.210804   24.729969    5.808887
H   95.294418   45.889145   49.809925
H   84.942421   79.674873   28.138836
H   62.219646   87.031364   24.509077
H   55.166817    6.635524   78.867615
H   39.189774    4.826859   44.405743
H   42.285660    6.279644    6.322729
H   48.554890   89.477661   14.379087
H    2.731996   85.369843    4.295125
H   80.886345   60.970619   26.811922
H   22.198940   45.543079    0.757866
H   75.578415   60.426842   67.050438
H   56.470768   39.988159   36.617516
H   91.660019   73.672821   71.670441
H   16.732601   96.668831   80.678322
H   43.214115   51.417030   99.092728
H   15.659678   61.762997   89.673767
H   98.730446   47.127136   51.274212
H   76.371910   36.524971   22.975231
H   95.874268   38.234425   37.192661
H   98.986526    7.976879   45.155304
H   70.880722   64.548668   67.996681
H    3.486150   67.783684    1.971972
H   31.932234   21.806606   78.913673
H   73.150635   60.761150   40.398201
H   32.967041   77.113182   76.638527
H   45.163475   87.620438   99.343567
H   68.161049   11.674941   36.412224
H   40.510246   65.361420    9.524311
H    4.266025   14.853981   98.988945
H   35.223396   26.916145    2.325380
H   40.004410   98.132080   76.210983
H   81.124809   65.288956   73.297249
H   72.809586   38.516434   88.536865
H   18.153048   66.031250   92.611176
H   84.471428    0.650195   10.181801
H   16.774220    7.754294   73.791374
H   24.537237    4.029263   50.677666
H   34.845913   75.242821   45.760948
H   71.033089   34.815151   29.793432
H   28.068583   85.213585    4.441474
H   60.273354   51.078007   67.662514
H   35.505566   67.462929   53.681198
H   69.246437   40.794277   66.019188
H   87.075653   73.024895   47.715508
H   95.644028   74.098190   38.901928
H   66.361336   72.518814   24.538599
H   91.881660   79.567261   42.501659
H   48.184219   82.857491   67.754776
H   41.397324   77.916145   27.813492
H   51.592869   68.178139   42.610519
H   56.479210   88.381226   30.110106
H   25.685717   58.463814   50.692024
H   45.585556   52.973137   92.760628
H   83.331772   31.045479   79.074951
H    1.305870    7.347798   24.945719
H   98.820557   21.289429   16.071032
H   63.143105   57.499832   54.004742
H   65.932968   76.001419   18.903536
H   81.692482   61.696449   15.631869
H   51.727036   24.665146   43.695610
H   18.748653   16.284985   88.051437
H   22.767218   53.122070   86.716011
H    2.346755   55.523846   82.186607
H    8.289011   67.464607   80.425156
