100
TIME:    2.998, STEP:  2998
H   14.579954   47.089409   96.401260
H   17.875496   67.293076   67.112930
H   31.287680   89.592545   88.147011
H   81.979813    9.132120   75.833435
H   68.318237   13.060422   84.417038
H   81.531258   97.960136   75.648369
H   95.845726   63.778381   24.900444
H   84.249405   47.966457   32.927601
H   79.931374   98.047806   11.373108
H   92.914268   59.430199   25.087999
H   21.388367   86.873703   50.966488
H   41.416138   73.964981   79.528343
H   52.558769   80.324127   27.152416
H    6.637805   95.835182   85.389107
H   16.967430    2.234163    6.660398
H   80.981018   49.513092   84.181007
H   83.025764   80.264709   46.308117
H   65.210411   48.907967   95.608093
H   91.961632    4.121467   21.309069
H   11.748917   42.148830   20.450373
H   86.371155   57.757790   75.870636
H   49.801529   48.063873   63.970886
H   45.716408   70.239677   46.574600
H   40.494843   72.638000   84.416145
H   22.358200   48.403542   58.681213
H   32.912357   38.278759    8.169210
H    3.557531   17.853254   59.458500
H   79.579002   96.376228   65.872063
H   76.359238   21.093981   15.455278
H   15.950280   16.639877   21.720829
H   34.044857   90.892151   72.186729
H   55.052711   69.677849   21.724159
H   81.532928   49.134071   67.880470
H    4.773349   98.974037   45.449509
H    6.248568   32.294434    7.286659
H   33.219173   19.993040   10.334283
H   67.345375   94.741684   44.695919
H   40.078049    4.082308   34.001881
H   18.525284   16.095804   53.783615
H   80.814987   31.520269   73.911415
H   30.359236   59.050037   12.977523
H   62.178001   46.411011   43.649338
H   37.064365   81.478058   18.022602
H   87.916931   63.019356   73.861900
H   96.601570   13.606630   12.657763
H   39.409283   20.099049   95.342201
H   65.156540   87.878693   54.239250
H   56.399525   26.250513   54.077171
H   52.662369   84.155144   24.882097
H   88.758446   76.374672   73.979767
H   43.315891   80.205780   85.027267
H   50.829517   85.547333   77.249290
H   71.067696   39.392151   28.749786
H    7.268749   58.294884   64.109894
H    2.087511   21.321037   25.847383
H   97.317398    9.381197   90.567810
H   86.311989    3.040548   41.122261
H    2.819270   93.763214   36.335037
H   26.722763   65.441574   81.325584
H   61.180367   58.225285   78.340340
H   48.817085   39.150875   80.647842
H   92.509727    0.037131   59.706337
H   77.595238    2.704603   27.888626
H   48.907249   58.102875   45.746433
H   51.319149   21.398415   74.759697
H   17.173134   93.233467   23.449512
H   47.033638   52.009785   11.805453
H   73.273354   88.995544    9.524337
H    6.320933   34.369164   72.204170
H   91.124817   98.932686   95.420197
H   26.832912   91.415474   26.186096
H   26.768648   52.027374   76.121979
H   11.516134   70.011650   84.878410
H   64.216301   59.661324   25.028496
H    6.717988   32.911938   28.667103
H   96.530327   99.715813   94.202545
H   39.153896   66.701065   44.070805
H   72.831818   54.689671   80.008682
H    5.278938   44.712658   51.130722
H   52.497810   45.676876   62.640823
H   69.548630   60.297344   59.172077
H   66.268570   63.806778   36.087013
H    7.482342   57.298645   15.444443
H   56.406925   68.704315   89.596069
H    6.351180   61.359234   57.129936
H   82.292664   19.175137   49.973476
H   67.384361   85.373894   66.499512
H    4.216043   65.267273   64.564522
H   17.899860   27.247999    3.672261
H    1.274494   85.929276   31.389553
H   46.713135   35.315327   96.774002
H    0.112722   20.972742   90.649559
H   77.632263   17.471281   50.844383
H   36.996044   95.083275   28.958775
H    4.755768   81.187195   84.978203
H   41.544113   77.343758   12.598507
H   24.635075   39.729519   64.771873
H   17.871786   41.763855    8.065781
H   65.895653   49.773495   93.922264
H   25.428514    1.701646    8.932334
