100
TIME:    6.625, STEP:  6625
H   69.300613   14.476490   93.080643
H   17.509426   63.864719   95.832497
H   93.645432   50.532738   45.575787
H   82.588593   59.700531   77.024780
H   35.831528    3.780352   86.074844
H   25.283085   94.030739   34.841976
H    5.754696    8.688580    8.536783
H   99.174355   61.747547   99.907616
H   90.772728   49.326691   83.067009
H   93.807137   11.509583   67.113289
H   84.013672   32.813633    1.596347
H    2.981290   55.767597   21.354156
H   21.311783   60.963428   66.728203
H   27.050240   84.655769   61.406681
H   61.073250   78.255180   32.306339
H   35.147659   32.282387   83.107910
H   91.363930   20.163578   76.488228
H   42.739849   72.466599   69.867226
H   48.451115   56.281952   12.393596
H   14.029556   65.119911   67.393425
H   71.139832   96.677032   77.427834
H   97.525543   52.878769   55.098328
H   97.288902   40.741524   42.802094
H    3.499563   16.082491   15.043026
H   92.636909   60.765404   85.467018
H   16.345835   30.807823   67.430992
H   90.797722   67.085587   31.417883
H   73.542862   65.672310   85.760208
H   55.225227   50.163647   44.004272
H   55.024784   26.871300   10.057320
H   76.791924   16.132442   85.230095
H   84.063873   69.467392   85.954643
H   37.013073   83.766090   94.629272
H   58.023979   66.581009   92.651260
H   16.078384   58.064583   28.121416
H   48.537365    4.326851   98.597450
H   15.223050   61.913696   30.489294
H   90.169426   37.712818   89.949730
H   65.431061   37.067924    2.300949
H   39.192516   91.972794   59.276684
H   82.480072   83.502708   98.427834
H   41.895126   67.583084   18.178413
H   68.302032    3.229311   80.004448
H   56.313847   23.843100   28.493349
H   81.985725   70.501663   23.029573
H   92.608574   89.278580   10.076014
H   93.492477   85.127640   89.058144
H   56.593227   63.605331   78.495392
H   58.682732   83.767433   80.200851
H   64.832275   31.570063   20.311598
H   43.046688   30.042875   23.264194
H   27.099960   48.989273   39.146309
H   46.295513   60.422729   18.098574
H   23.272934   99.107147   24.158836
H   13.302441   39.188278   56.698696
H    1.847189    5.564866   67.096161
H   16.248835   98.384605   86.080009
H   32.744049   51.238182   42.911362
H   12.777251   18.693241    2.882093
H   21.837608   37.007923   75.179832
H   77.610558   70.477066   97.859543
H   63.783730   66.277512   95.592697
H   23.831297   55.205116   79.174316
H   97.966110   77.852280   47.272564
H   95.279770   31.716122   12.526305
H   94.363373   12.924641   37.905548
H   56.032486   77.404541   86.916702
H   22.731865   96.427528   82.915909
H   87.091011   73.756088   44.724857
H   64.602989   81.360771   87.782776
H   11.658377   44.636444   82.678200
H   27.705873   31.654282   41.673462
H   75.028656   90.607361   91.882141
H   84.366707   30.123501    9.518892
H   81.588371   38.086567    3.617586
H   82.277214   32.172749   50.150345
H   68.474213   52.390842    8.236975
H   43.234875   17.527349   80.314049
H   79.205330   34.059010   91.595711
H   74.628922   48.124825   50.171471
H   40.513763   97.820328   75.949936
H   38.431625   87.434906   32.757267
H   36.921455   17.911413   60.875816
H    5.939523   79.074608   58.324841
H   29.747145   34.487724    5.532967
H   98.813583   52.402786    1.843194
H    9.623568   21.661324   39.448997
H   62.577232   74.935364   26.886894
H   93.169785   25.302591   74.006844
H   80.600021   36.705921   61.042519
H   95.144920   31.163174   73.369675
H   68.481812   93.743011   59.755524
H   10.128734   26.302021   31.325998
H   87.547585   15.103873   73.512589
H   42.050621   56.303314   68.321716
H   41.119446   34.116913   25.259277
H   36.740654   47.874771   56.179611
H   25.489542   14.264615   45.884048
H   93.113487   65.410561   90.123634
H   50.714436    8.627106   59.534077
