100
TIME:    9.139, STEP:  9139
H   99.289215   83.931862   90.779007
H   48.078964    0.091803   54.349102
H   36.861904   31.399635   16.062489
H   83.010559   56.123955   39.222939
H   13.305899    5.288355   17.910049
H   86.298218   91.307137   83.811920
H   73.993996   78.447456    5.134884
H    1.578918   79.241226   69.081932
H   28.973808    7.614443   24.819326
H   25.140711   47.607502   65.549538
H   50.167511   33.968399   59.433540
H    7.029472   81.781548   42.404655
H   60.985962    8.817308   16.899124
H    2.573352   76.906929   52.722889
H   91.608284   53.692299   11.407059
H   34.064590   12.398686   74.423889
H   89.202919   86.444679    5.347578
H   96.497482   50.135139   82.723221
H   87.609665   61.747684   44.838879
H   46.293728   11.737101   38.558189
H   21.955498   46.401451    9.196302
H   38.545177   56.216141   41.007996
H   63.723381   20.300817   70.872772
H   69.913803   46.157196   28.332216
H    2.722106   61.393120    4.031658
H    4.514856   56.685776   30.861082
H   74.013466   62.581661   81.299179
H   61.418419   83.017334   68.861259
H    9.889674   78.253685   25.166134
H   51.422523   64.649185    9.913116
H   75.733940   41.567463   86.330505
H   42.799274    0.013195   53.221062
H   14.095274   99.830185   21.110250
H   64.246643   36.187805   86.740410
H   53.511314   67.719460   81.077225
H   67.075134    1.237659   90.695168
H   56.347351   69.844978   28.582663
H   86.260139   91.704308   67.353874
H   59.313808   82.294579   58.675323
H    2.402174   56.621460   57.073013
H   10.665834   69.761642   57.655361
H   30.028854   77.441757   46.522472
H   89.937408   18.310616   61.591099
H   95.790321   66.047218   74.296455
H   63.914207   71.324593   38.161228
H   60.157784   37.223248   20.289522
H   13.141982   21.848494   13.194788
H   56.745419   89.498734   34.046680
H   32.172096   75.557777   79.916351
H   17.611502   69.837791   44.534214
H   42.874065   87.331734   49.768204
H   49.284725   15.707287   74.117531
H   98.434074   74.999756   72.094833
H   65.049225   58.096909   35.094246
H   13.133961   59.503990   78.072098
H    4.978373    2.920382   81.513657
H   75.624115   25.844719   25.182516
H   45.546814   13.821280   78.155052
H   11.052189   24.924337    9.884012
H   55.937969   30.242115    3.675682
H   36.196682   53.564213    1.848830
H   74.556938   42.877548   81.844795
H   94.507126   83.653831    6.781799
H   70.599670   91.547012   79.016632
H   95.065094   30.926830   46.644184
H   39.925575   87.946922   86.553368
H   54.329575   64.318390    8.292572
H   49.072571   40.207100    3.099655
H   12.387560   93.116089   87.050507
H   15.633330    7.673758   82.459946
H   31.821369   73.582085   52.526772
H   20.693048   48.149803   25.931168
H   11.112009   66.256493   27.425327
H   29.024494   71.011574   60.145149
H    2.706505   41.771923   94.226868
H   41.710190   93.296867   80.990158
H   96.798660   34.796864   52.826057
H   61.339306   53.150276   19.162163
H   99.763023   26.674595   19.648043
H   51.339958   11.174393   33.588127
H   89.726585   23.829508   26.208992
H   27.079575    3.742005   22.435537
H   95.935463   59.954624    0.294431
H   78.897133   94.202980   28.710979
H    7.337952   77.220383   61.830093
H   40.958164   44.745125   76.423050
H   77.527992   38.872414   59.325981
H    3.009061   73.763527    0.820799
H   45.345707   85.327675   53.445564
H   58.329296   33.273247   50.912659
H   98.028191   66.908234   26.461082
H   54.492352   82.819778    7.663429
H   71.281052    1.728960   25.737482
H   30.514421   67.625473   43.026272
H   98.581421   31.113728   26.089766
H   48.765533   34.842163   95.407486
H   37.191154   92.147377   11.595724
H   20.636927   38.658100   95.412865
H   73.352196   76.266609   79.550697
H    6.870768   44.112072   17.350704
