100
TIME:    0.333, STEP:   333
H   94.803383   91.483589   98.841141
H   92.007195   22.799458   99.006104
H   85.485840   97.861580   19.429901
H   81.532501   18.930605   21.910051
H   92.188400   99.448944   56.676094
H   22.852589    0.851221   11.723320
H   35.518162   83.823463   16.493807
H   93.713150   17.411167   77.619499
H   45.442223   54.276825   79.126457
H   65.740227   21.167622   20.729296
H   69.280182   79.641571    7.673580
H   43.131580   40.382133   69.225777
H   22.080597   41.560516   92.031578
H   38.593693    4.050551   82.581596
H   84.552849   40.277924   34.765141
H   88.134476   82.610909    5.397876
H   97.293861    4.018871    3.673959
H    8.260663   78.506790   88.001755
H   50.449638   92.322159   80.906082
H   83.635384   98.549957   38.905952
H   44.515854   23.066010   48.204018
H   94.277931   44.539459   90.901070
H   81.297997   91.913948   22.822842
H   88.102203   40.675571   82.343597
H   17.673475   59.765118   39.017471
H   45.132092   17.687180   57.960709
H   33.363506   28.634216    6.574163
H    4.443883   71.982498   77.782333
H   18.412079   79.304466   41.430664
H   13.762502   82.597977    9.861378
H   29.201021   51.904259   83.061119
H   86.783264   43.310440   68.436607
H   93.813538   44.118034   27.796225
H   92.171928   43.205170   57.722359
H   72.494591   33.748032   45.005234
H    1.507770   10.644484   19.498526
H   11.738389   92.340187   34.704296
H   50.225685   52.859379   45.939655
H   35.749706   73.399422   10.209748
H   31.828884   81.009148   64.235039
H   12.485394   67.604973   50.185390
H    1.693027   26.802507   18.444891
H   14.109578   65.496841   25.526375
H   58.095001   18.352320   13.290897
H   27.770519   18.753296   84.602966
H   73.698494   69.464165   84.624153
H   39.596241   43.704861   30.468695
H   56.257198   98.811432   89.182114
H   74.762383    4.870909   31.190058
H   32.873859   35.817867   60.373215
H   43.519215   37.494911   56.927982
H   21.315878   32.838730   52.202042
H   15.786695   23.939575   83.530281
H   68.975754    1.768723   46.510395
H   14.248913   87.697403    3.231805
H   93.982895   12.181976   81.290695
H   17.363113   79.938286   87.658440
H    1.263168   45.439034    4.977383
H   16.540382   52.838882   85.919098
H   37.043800   53.384155   54.138268
H   80.706406   63.083023   88.432556
H   87.092316   24.845840   80.288101
H   96.819603   84.445183   10.712956
H   65.907051   43.605919   18.099104
H   45.539856   34.247784   26.572496
H   80.888710   25.718708   65.875420
H   60.851494   59.873165   83.139206
H   57.363213   36.582321   82.121925
H   73.499992   25.859062   39.347630
H   37.132248   64.894188    1.030516
H   11.457872   72.747200   58.153599
H   46.509335   40.473961   81.002724
H   85.279266    1.836361   53.210827
H   22.861366   28.306471   83.417427
H   78.226364   29.117517   26.641869
H   33.530918   28.914370   73.522141
H   97.188873   97.681999   96.925598
H   47.625275   28.946350   32.830532
H   77.514870   52.526295   21.401524
H   83.194534   90.818413   92.233002
H   17.398350   32.726696   99.891678
H   66.309380   46.402298   58.935143
H   38.865833   12.815515   61.616455
H   73.077911   40.656834   33.014290
H   36.115814   28.054375   15.471717
H   43.629124   21.285480   64.907784
H   89.395027   79.141106   39.421886
H   61.315811   78.633293   92.277519
H   62.593697   75.631386   25.476322
H   36.894234   95.584808   36.116268
H   37.650303   91.412796   40.494091
H    2.925306   20.550821   39.869049
H    6.650196   37.608818   44.676781
H   79.413765   33.431221   49.270535
H   50.834675   19.901188   23.738579
H   21.426056   82.581596   50.249107
H   36.170036   86.790688   18.037895
H    8.087823   19.072968   50.707451
H   92.848839   38.285725   17.158352
H   59.921917   70.150703   65.613388
