100
TIME:    0.112, STEP:   112
H    9.748555   11.750302   99.043472
H   98.154701   10.817215   85.065460
H   81.688751   81.961693   22.024803
H   81.495407   28.036367   34.023949
H   94.167877   81.734818   62.668480
H   26.279579    1.091753   89.837120
H   47.099957   68.901512   99.211029
H   11.083319   98.292084   97.909981
H   50.874825   75.525009   93.036751
H   71.779823   17.995232   12.074564
H   89.837067   70.749100   28.961388
H   51.567120   29.304482   84.957054
H   36.138176   54.931259   13.997293
H   49.536457    4.731945   65.764473
H   81.865211   60.017052   45.389233
H   97.019562    1.941122   23.742901
H   15.061510   89.403847   83.552177
H    3.538141   89.253967   95.663376
H   47.008316   83.052002   69.261902
H   89.617653    3.183931   23.828882
H   57.630310   45.067879   54.201462
H   73.087074   44.247765    9.718649
H   84.248665   93.711327   29.146545
H    8.635563   38.025028   98.756058
H   25.577051   77.290810   37.385330
H   46.141407   24.276253   78.673088
H   52.421452   37.821445    2.188838
H   23.090462   61.666958   70.478165
H   13.606494   59.253414   51.877716
H    5.288604   88.067673   92.292656
H   20.507509   32.085884    0.549305
H   72.829132   49.415794   88.895699
H   78.247498   60.287697    7.886799
H   82.834328   63.458557   67.032982
H   77.987892   50.453873   31.548500
H   82.292961   93.283928   20.258955
H   90.541969    0.432844   17.289955
H   59.359268   56.904324   30.344950
H   45.685871   78.117119   31.392059
H   52.643749    1.697650   46.846352
H   27.587757   60.021793   44.977039
H   21.555252   16.883204    8.062232
H   12.206397   64.171570    9.563429
H   72.207626   14.648808   91.682388
H   46.939934   27.472942   65.691711
H   76.521019   65.309624   83.757500
H   37.262684   31.782475   28.580267
H   56.245396   96.535202   75.507874
H   68.301262   23.173519   40.006577
H   28.238783   32.454105   75.830948
H   43.532085   58.831825   54.604687
H   10.576287   53.346718   66.710587
H   11.202621   22.658142   96.364845
H   74.091370    5.374861   36.758015
H   31.843285   68.324158    1.356550
H   93.706375   12.414600   88.814056
H    3.352961   86.315102   66.639565
H   17.720018   66.309532   10.670065
H   99.111092   43.501282    2.884746
H   51.630814   36.396690   60.417152
H   66.765762   73.361313    5.664035
H   94.936035   26.902878   90.286652
H   81.830208   99.515511   25.874481
H   50.730713   42.403732   24.099920
H   36.767097   51.899525    5.991162
H   94.465157   36.705311   52.808178
H   78.582481   52.233463   72.469589
H   72.629128   23.942806   71.556847
H   62.486183   41.738716   53.209026
H   32.655663   53.777893    1.495246
H   18.476248   87.783806   60.804142
H   64.731041   47.808479   64.822945
H   99.688644   12.767323   58.877796
H   27.725754   42.292416   96.552116
H   67.570236   28.803061    9.888127
H   28.305708   14.750319   88.393509
H   77.124329   16.836731   93.013855
H   37.242294   43.396870   20.625271
H   66.922813   53.172070   18.937294
H   94.032761    2.853989   11.272224
H   13.073799   30.439775   86.682800
H   49.727512   44.959000   77.415222
H   24.882610    9.126758   40.567230
H   57.875389   21.745579   53.200233
H   46.877289   41.879440   36.895042
H   48.720127   13.163714   49.562267
H   74.634941   95.209602   28.883785
H   57.758148   96.327187   94.573982
H   58.007515   87.936516   27.284660
H   56.432716    4.678802   28.215624
H   28.606081   79.478607   35.826977
H   86.573494    3.930127   35.658867
H   92.470497   30.987391   27.579546
H   58.053825   20.025824   34.370502
H   54.655369   39.697643   18.660900
H    3.172323   91.308830   61.663979
H   53.712181   74.107872   30.747688
H    7.276577   17.191284   54.243195
H    3.376686   37.333080   35.670002
H   46.197094   75.826103   86.898666
