200
TIME:    0.856, STEP:   856
H   28.399427   60.430622   25.872795
H   33.454407   41.871056   14.904757
H    5.226849   96.100372   75.689507
H   38.606613   84.173714   28.391449
H    8.669913   99.341675   44.801903
H   69.579041   36.095787   47.316719
H   12.283965   54.867058   61.574520
H   16.692842   15.485381    3.207228
H   12.444338   78.271301   32.692104
H   89.176834   66.269432   71.774971
H   33.664394    7.752984   12.427849
H   33.325043   58.464767   42.093590
H   26.293133    7.452356   36.044853
H   75.288643   55.805874   71.949150
H   89.881607   76.686592   41.462936
H   11.345310    0.585614   41.034584
H   13.185757   36.568638   85.524582
H   21.935150   12.780648   32.553600
H   85.520844    7.400850   51.551918
H   92.016029   71.245201   13.591451
H   65.477715    7.508220   97.619049
H   76.315285   72.359901   46.836472
H   76.558861   58.062637   34.355629
H   21.655792   93.675331   89.654503
H   30.020920   37.478554   23.429821
H   18.151175   89.674332   86.611519
H   10.825053   71.156990   73.849319
H    8.647752   95.540749    2.352134
H   37.013325   37.806099   34.731339
H   65.213058   37.266567   77.317429
H   12.557255   77.184853   16.947941
H   20.724300   77.943832    8.769537
H   12.239326   22.240198   80.703384
H   76.039223   64.249977   49.057327
H   18.426741   64.347397   29.532862
H   12.938374   35.876907   86.539268
H    3.944607   61.133530   90.579445
H    2.445287   60.689671   87.471405
H   30.271973   24.342949   58.124229
H   84.175217   37.155346   39.633881
H   80.687599   76.447678   21.970680
H   44.000198   30.189577   21.565056
H   65.610550   73.631111   73.201759
H   35.908951   93.152229   40.778919
H   49.824463   95.089279   66.593529
H   32.391182   97.807259   49.387310
H   91.582428   96.032471    9.684447
H   75.119057   65.541206   25.502640
H   10.903281    5.376087   61.610455
H   40.073421   20.581381   79.652222
H   63.554550   62.699303    3.456352
H   97.590874   46.300518   76.785500
H   68.791954   76.806389   15.977294
H   13.238462   95.183090   90.825294
H   51.124924   62.685287   70.851295
H   97.409355   57.173645   98.819366
H    3.672527   19.076515   43.046803
H   74.138657   72.899399   94.184624
H   15.182947   86.377121   22.024906
H   28.856129   92.530190   55.606842
H   48.424492    3.358088   24.238468
H    1.007852   17.884142   53.788734
H   88.417953   37.966797   64.102814
H   39.051689   66.031181   17.421104
H   81.250656   85.262299   43.119373
H   14.575343   40.492790   43.935806
H   63.165382   10.168208   98.561928
H   93.891838   92.850441   99.467293
H   38.433350   14.177604   54.182991
H   41.691036   52.366467   50.949696
H   58.194931   87.246368   89.758514
H   14.827953    7.630464   40.452847
H   97.044571   36.312634   78.868744
H   27.934050   95.424675   78.506264
H   86.645767   10.843184   38.648422
H   68.883888   97.329323   58.852173
H   92.823944   52.882416   63.432163
H    3.739601   17.186964   26.903450
H   16.216799   57.133812   21.285177
H   58.992901   87.231461   65.048248
H   69.512566   19.691023   91.988251
H   53.722988   57.511662   68.814018
H    8.596400   20.423304   72.256340
H    4.586394   82.002541   13.928178
H   16.972336    5.837825   40.325134
H   42.021378   64.221466   14.959719
H   63.463646    4.067717    3.183574
H   70.208809   95.617828   34.676231
H   84.540604   73.556503   79.389160
H   20.358772   13.658804   48.088528
H   15.421022   40.210514   78.014557
H   79.764595   93.940125   11.808842
H   76.523422    9.914757   78.185822
H   32.405338   72.302727   86.018913
H   40.733147   48.593620   93.595482
H   43.762062   41.481789    0.098783
H   87.661674   92.972191   24.858788
H   94.749840   38.833286   55.415176
H   23.059776   63.607315   55.064262
H   77.915062    7.936585   27.400797
H   37.350002   97.458130   97.946388
H   13.477647   85.976089   62.466713
H   35.948502   14.657485   39.110561
H   51.475060   69.076813   14.625064
H   24.522165   19.377487   45.058941
H   11.810541   96.613815   15.050345
H   90.050026   36.922398   52.403133
H   61.121159   57.925652   94.922249
H   88.451286   32.313988   28.919331
H   24.154848   19.471674    8.552126
H   55.299187   90.713814    1.229252
H   10.727776   78.835632   97.527824
H   46.395157   87.422913   80.536507
H   61.137505    6.117191   59.069702
H   43.293739    7.619373    5.173686
H   88.899452   87.777901    6.723951
H    7.248015   17.116682   91.361252
H   37.645809   57.316639   21.665276
H   42.255791   80.840866   53.095798
H   87.038918   58.969296   72.322830
H   46.983772   25.852879   67.334587
H   91.710724   12.887440   66.307587
H   47.087471   95.842239   42.303448
H   95.001862   45.152306   90.889397
H   58.484123   93.700737   72.439903
H   70.289948   79.206299   13.637726
H   80.074989   52.066147   47.264847
H   61.954613   92.401268   40.205151
H    0.048349   30.185909   70.852242
H   97.602432   21.229652   76.996056
H   73.475105   63.191071   26.952175
H   58.055779   92.160995   23.853779
H   90.426277   12.564272    1.958018
H   70.715546   28.796505   57.288311
H   34.856876   90.231842   28.110550
H   45.951401    0.836272   74.606468
H   69.912552   88.134224   86.004250
H   96.472618   44.987400   73.465279
H   62.414429   52.948196   71.404396
H   43.781624   79.547020   78.341156
H   81.114059   44.953644   34.808472
H   28.880394   59.727409   60.606846
H   35.203285   68.098183   78.606842
H   29.486641    4.229477   88.332191
H   69.256836   49.337448   69.211487
H   68.510948   72.588120    0.343681
H   59.300346   94.080162   42.871220
H   25.832191   50.488823   65.290794
H   81.653046   39.073204   91.820740
H   29.098335   95.400078   66.944870
H   54.508606   71.771500   46.693836
H   59.718002   90.064445   28.848282
H    4.792336    8.805325   81.840897
H   26.193420   15.282259   60.729664
H   38.039265   70.147964   71.896904
H   81.788658   45.056309   73.013641
H   65.759262   79.357742   88.049728
H   54.803970   26.776413   24.155758
H   84.188438   99.413132   79.759834
H   56.773457   31.809774    1.880454
H   60.006821   59.383446   67.037407
H   14.681406   19.864025   30.207458
H   91.735100    7.712409   36.975918
H   33.885925   38.275883   44.844543
H   53.056053   42.990311   15.877180
H   22.526810   44.839169   58.934483
H   64.292595   87.603584   58.751942
H   24.170330   58.959267   73.485123
H    2.443646   26.166960   35.402374
H   54.584251    5.811116   83.466583
H   67.596924   12.959487   35.924377
H   24.882273   42.566734   59.349747
H   49.574951   50.984333   73.091507
H   63.640495   59.804741   88.531082
H   42.807251   90.402634   70.267128
H   19.922966   50.992043   23.887756
H   29.089588   72.165100   12.675323
H    7.189532    9.788322   72.756912
H   59.847530    7.059190   61.930866
H   56.998421   61.062889   95.074760
H   70.171417    7.264396   27.397320
H   31.652517   30.857998   92.104263
H   37.271526   89.516693   18.271255
H   64.895790   26.360165   99.852272
H   93.488968   61.616547   75.858994
H   12.156052   41.421646   87.037209
H   52.801453   93.973396   12.914251
H   60.826996   93.317329   47.081398
H   88.778725   63.920383   73.583572
H   60.815323   54.922421   73.485733
H   77.246429   10.644066   74.902534
H   42.603081    1.669627   16.778227
H   17.783241   32.178902   71.918404
H   24.342073   88.115295   45.727558
H   63.755295   26.741127   19.801285
H   76.832047   11.894989   21.126873
H   13.555900    2.356391   24.258284
H   11.006968   85.163445   29.594246
H    3.698815   13.335512   50.467384
H    1.582888   14.122738   89.190628
