100
TIME:    7.877, STEP:  7877
H   84.633049   99.662895   91.934402
H   82.933395   31.707096   74.776138
H   15.169352   40.606445   30.875622
H   82.798737    8.117508    8.396837
H   24.614332    4.133581   52.127029
H    5.865111   92.674355   58.832527
H   40.136440   93.229843    6.444828
H    0.769627   70.061699   84.953835
H   59.996178   28.951935    4.257374
H   59.610970   29.487047   16.135578
H   67.555679   83.190887   80.996658
H   55.199837   18.523647   32.235039
H   41.459648   85.201477   42.312191
H   65.059242   80.796761   56.684269
H   76.280037   66.420364   72.095490
H   84.805710   22.777893   79.180939
H   90.685463    2.974088   90.462738
H   69.512146   11.544106   26.470581
H   67.948685    8.801686   78.352249
H   80.295853   38.536289   52.635384
H   96.844383   72.037659   43.447590
H   17.556002   54.540817   48.478958
H   80.572899   30.559767    6.979352
H   87.171158   31.060030   22.058975
H   47.857124   61.475800   94.713356
H   10.466656   93.889511   49.622116
H   82.836731   15.038806   56.262638
H   67.902428   24.111425   27.143534
H   82.448433   63.755024   84.822502
H    3.032956   95.883377    9.587746
H   26.064413   28.401794   86.175911
H   63.115871   34.878086   70.050728
H   25.201872   92.163963    7.419323
H   10.923467   51.842628   39.905106
H   84.918816   63.270592    4.294015
H   57.371738    2.388938   94.662025
H   35.305988   16.062426   29.141996
H   38.421402   14.797691   78.298943
H   12.580245    9.791296   80.972694
H   21.268433   74.765488   57.781441
H   96.914917   26.461912   27.923185
H   36.383369   72.492813   82.094597
H   79.076691   10.739634   70.436470
H   76.369934   44.857506   50.906200
H   73.383690   21.107006   30.166573
H   76.446587   13.156276   15.162455
H    3.275721   53.216438    1.075250
H   56.668392   76.500534   55.961666
H   95.284615   80.076729   30.256699
H   91.119385   50.626415   32.772202
H   42.960720    9.169813   36.461899
H   87.950439   32.811367   56.960876
H   72.264366   67.682251   45.387520
H   94.280731   78.684967   79.406937
H   13.616322   48.907944   67.346176
H    3.406553    4.247884   24.475128
H   95.620224   62.258934    5.155658
H   39.517746   33.002281   10.661038
H   11.516323   71.600410    6.768543
H   39.217720   33.240688   39.569969
H   56.587963   12.255087    0.243942
H   19.347816   54.624069   38.945099
H    8.829650   69.770660   93.320923
H   83.939568   84.672409   13.277181
H   44.975044   31.721079   29.120031
H   17.451557   50.684288   11.933940
H   55.582184   20.691261   47.364178
H   36.247597   68.031364   42.768753
H   49.491768   83.795357   66.202423
H   90.002525   44.284931   85.136612
H   71.902046   59.451248   67.662453
H   24.615894   90.052147   33.427364
H   93.395569   28.684004   59.786030
H   56.802128   50.883602   35.128387
H   41.913651   39.913662   98.541245
H   11.872436   12.414207   65.905922
H   82.182335   44.026627   30.440603
H    2.055901   35.664776   49.457821
H   39.243492   30.381489    5.563629
H   13.230006   79.921715   42.310555
H   65.020378   10.773538   50.780441
H   32.380547   95.554108   28.014721
H   16.112074   38.849400   80.108978
H   92.074486   86.210938   43.974567
H   68.785736   56.166019   84.166267
H   70.004745   98.388535   88.785889
H   93.241798   30.630409   99.149010
H   82.712852   74.749390   13.905724
H   19.154381   55.593300   63.767097
H   69.906952   85.194717    5.801783
H   46.382008   98.767662   99.809616
H   61.117130   87.905334   83.614723
H   90.384476   63.870045   28.145082
H    8.547903   91.061363   57.932781
H   20.403225   44.156403   97.092346
H   44.529510   84.678223   60.591637
H   37.362785   19.724152   84.175026
H   23.072886   76.212593   20.750593
H   33.470787   70.816994   85.255943
H   28.482172   76.495743   38.924053
