100
TIME:    4.794, STEP:  4794
H   93.124184   82.387154   94.756973
H   68.076729   64.645325   80.383301
H   62.159172   18.803463   67.072731
H   82.281265   35.138359   77.388313
H   52.231628   57.017746   35.718735
H   53.682919   96.014397   53.512615
H    1.717558   85.051468   65.350052
H   43.087349    3.344582   68.025612
H   35.782265   25.369949   98.321037
H   43.832298   85.218102   95.416260
H   54.328827   59.139515   77.966690
H   72.868523   63.989098   51.686653
H   38.151993   71.687477   48.666016
H   17.710629   90.299416   22.065340
H   38.813759   41.807739   20.328629
H    8.767204   92.428177   35.097595
H   38.602242   99.057510    9.805082
H    3.584482   61.556408   33.340771
H   19.936569   79.468018   15.929415
H   63.355583    4.010042   42.730415
H   79.793968   78.959747   27.127205
H   21.985794   50.448090   11.024857
H   21.737221   55.632927   95.187424
H   73.626938   94.178162   51.029472
H   58.122955    5.970627   71.944618
H   24.692564   84.933929   39.612125
H   48.687294   43.196575   95.086464
H   28.038322   80.207428   25.235727
H   15.412324   84.041344   30.556492
H   84.816910   72.188103   64.497810
H    4.728256   51.942265   30.092918
H   68.453316   20.059921   55.459450
H    8.039690   17.730444   29.678335
H   80.659149   34.381165   69.787651
H   61.605515   96.530319   16.649979
H   89.372147   60.915363    4.355355
H   39.606003   28.969883   86.213852
H   65.845161   71.222450   60.739529
H   42.717037   76.964592   79.738220
H   11.652578   63.386017   15.215891
H    7.616148   20.677885   55.290264
H    0.763080   27.014708   28.026033
H   52.534367   92.248138   47.749069
H   73.229721   93.110260   49.467628
H   40.811634   42.743980   66.346092
H   16.238537   54.355030    2.635979
H   79.187790   85.551476   71.484612
H   56.495441   44.746613   65.203484
H    5.165786   35.410442   53.240829
H   26.422222    3.699095   48.364845
H   43.178867    6.813465    3.963261
H   38.111244   18.891634   59.346016
H    8.313363   49.805969   24.440557
H   65.670677   28.985466   43.361778
H   59.089661   78.724861   41.122791
H   99.564590    7.490900   29.427734
H    0.171634   51.217949   11.936815
H   69.084366   24.153635   90.072128
H   68.368309   41.327759   43.445290
H   42.663754   96.270111   27.257820
H   62.109924   55.627499   40.617561
H   28.766546   83.320206   78.441620
H   99.524544   80.148972    4.731499
H   72.235878   67.878113   96.980469
H   22.603785   77.955780   42.013721
H    6.842796    3.949125   29.642019
H    2.936492   14.104264   98.515793
H   49.211449   91.710709   95.383522
H   95.833450    5.320053   59.562630
H   27.513102   89.266602   91.638336
H   69.801292   69.216187    4.639351
H   78.679474   92.421265    7.615588
H   94.413116   81.175209   38.830879
H   24.673992   46.006123   18.310249
H   93.309700   35.474285   64.815765
H   38.991875   14.822741   73.353256
H    2.218659   11.033901   75.832954
H   57.211163   37.252438   79.194984
H   91.403206   39.437237   71.172417
H   64.418365   47.862751    7.913867
H    4.683140   78.877792   66.515053
H    1.024104   75.536026   85.905907
H   21.105448   87.291931   86.500122
H   79.968933   22.392073   25.559319
H   18.901148   49.018166   83.027931
H   40.958607   85.146431   74.693069
H   87.335136   54.790070   52.139984
H   33.121506   21.475271   45.887749
H   55.172958   27.249617   88.982063
H   42.484760   12.036339   95.592072
H   20.212944   32.294399   34.702312
H   33.006351   56.033768   24.873877
H   92.758308   71.364662   89.731918
H   10.585572    4.023707   50.052761
H   73.705330   20.312004   26.246777
H   89.886307    6.422220   19.832848
H   82.077354   42.798382   61.481644
H   24.462637   57.055725   79.321022
H   80.338074   57.515347   43.489700
H   36.984486   55.609745   35.919056
