100
TIME:    5.339, STEP:  5339
H   56.267494   32.407753   94.258011
H   53.024696   94.175583   14.746158
H   71.530533   58.012894   60.675533
H   82.372742   12.683262   47.514801
H   47.350113    0.701898   20.942688
H   45.229664   95.423958    7.484945
H   73.152122   21.852070    7.969834
H    0.251421   50.492603   17.984173
H   22.385124   72.970276   64.017372
H   28.938700   93.043495   16.758322
H    3.634249   81.068909   25.470325
H   52.067719   91.307289   12.893351
H    3.374318   38.731010   94.511894
H   90.725853   88.619576   63.541588
H   45.441643   93.126755   94.130981
H   86.853745   44.760635   89.857147
H   94.776405   35.103939   59.418579
H   15.238561   35.040714   14.448660
H   28.425167    2.329187   44.640545
H   48.673615   92.434853   79.836586
H   47.452888   24.702888   12.335049
H   74.235474   51.171585   64.613113
H   14.460465   51.200478   79.594849
H   22.987572    0.698214   10.552110
H   38.630157   62.751465   75.969582
H   22.208147   68.825760   88.362350
H    1.690523   20.540577    5.899298
H   82.052254    5.646156   43.252426
H   27.262733   33.487492    4.795414
H    5.714787   58.699486    7.824080
H   26.177948    0.814555   86.974251
H    2.865039    5.003074    5.006066
H   46.429607   77.855858   78.776237
H    3.686439   84.435295   46.827065
H   48.058685   55.332657   49.835136
H   36.747395    3.601730    2.641066
H   91.878693    9.009308   29.157513
H   43.320827   61.250370   99.200859
H   19.710712   65.089287   26.923250
H   60.318455   12.363680   58.096737
H   70.368927   39.376503   68.130226
H   51.781578   51.475914   53.626965
H   57.228771   95.516342   87.115486
H   38.430149    2.257693    2.755640
H   93.537132   21.242859   12.983020
H    9.206263   64.750076    4.851443
H   83.445602   15.190793   76.715401
H   56.524548   50.359940   98.925026
H   21.095253   90.274170   31.498592
H   37.852619   11.994345   10.248276
H   43.137287   54.197632    9.708606
H   64.597832   68.320938   23.566254
H   19.618313   52.966064   92.788078
H   53.050537   20.091461   67.411766
H   15.695782   26.489126   45.758984
H    0.245417    6.917613   10.874649
H   34.721092   35.492317   63.770775
H   28.502270   72.684929   76.034653
H   11.352898   64.355049    1.604710
H    6.700769   38.161709   11.756721
H   96.488434   30.284225   98.126183
H    9.425516   78.247421   53.782837
H   36.524937   42.959641   67.359192
H    9.658702   70.846939   82.186234
H   44.237061   34.426800   92.766518
H   73.362816   76.855614   61.866676
H   59.210632   32.946125   24.829586
H   11.564612   22.880651   21.437674
H   22.996664   66.159843   25.379547
H   38.553490   16.677998   90.490723
H   52.495613   32.134964   98.101723
H   33.742393   74.333878   47.518837
H   58.878677   54.216118   24.855774
H   12.678104   11.514111   85.928642
H   19.586363   36.251835    6.130086
H   51.877579   49.753242   36.682621
H   51.702053   63.798267   85.471245
H   82.816254    1.615746    9.291799
H   17.538250   37.836399   77.251442
H   37.691910   18.177673   60.961609
H   15.347584   84.516068   99.088982
H   41.917984   79.095078   40.333725
H   55.579590   96.406311   38.403286
H   17.464991   69.028854   75.781372
H   92.363686   14.926593   30.196129
H   28.413860    5.163676   12.539685
H   23.734472   15.164139   78.127609
H   41.894798   77.841919   40.220589
H   66.482773   96.905739   84.524666
H   94.299011   89.614059   15.074347
H   42.516563   61.720707   46.211712
H   73.330833   97.023529   35.256454
H   27.693529   87.716957   31.877644
H   63.260841   37.084057   86.799767
H   64.283257   71.495201   38.769779
H   34.901123   84.900726   91.682465
H   38.817314   74.075005   30.138489
H   26.462645   61.696075   70.597496
H   54.375397   59.864628   97.839012
H   70.835770   41.626324   83.417999
