100
TIME:    4.829, STEP:  4829
H   90.757240   79.177467   94.724930
H   67.110085   66.541763   82.590027
H   62.760788   21.321411   66.662041
H   82.287140   33.696404   75.469978
H   51.918137   59.823151   34.769714
H   53.140049   95.976479   56.978916
H   99.883232   87.414673   68.087097
H   40.336418    6.372459   64.812187
H   34.921898   22.004852   96.118050
H   42.875801   85.720650   96.786652
H   51.073212   60.547825   74.595184
H   71.532845   65.743477   49.195274
H   35.918564   69.571007   45.188232
H   15.977744   90.191536   24.728952
H   39.239403   38.681366   18.646214
H    7.359844   89.366959   32.192322
H   35.787758    1.372531   12.991270
H    4.332922   59.853565   32.127392
H   20.481709   80.936142   17.773249
H   62.412704    3.266768   45.113380
H   77.717018   75.475555   26.177250
H   25.341278   50.494553    8.044281
H   21.269920   55.348274   94.186066
H   70.375061   94.597137   48.429947
H   56.871124    3.194862   72.203102
H   24.533014   83.899460   36.320995
H   45.669067   41.741535   95.780739
H   25.085117   81.841110   26.392763
H   16.173409   87.216850   28.902115
H   86.158997   71.321861   67.280251
H    6.105791   55.080654   27.323830
H   70.663246   19.093010   52.219322
H   10.505100   15.169771   32.831413
H   82.137955   31.173615   68.313118
H   60.735535   93.884598   18.781136
H   92.414673   63.656681    4.245239
H   42.962822   27.688011   88.971725
H   64.398399   70.582115   63.209278
H   41.239567   76.201958   76.346420
H    8.355974   60.109306   17.969625
H    5.224204   21.878714   56.114849
H   97.617455   28.585505   29.670130
H   52.835842   92.458023   50.277031
H   70.994690   93.697449   52.889709
H   37.775784   41.363174   69.341087
H   15.786959   55.022602    2.778255
H   79.461227   87.454857   71.820534
H   56.497311   45.107101   67.369087
H    6.188807   32.511845   51.844536
H   27.156284    4.231817   45.916992
H   43.176197    3.434352    4.332228
H   39.812218   15.643896   57.048233
H    9.039348   50.008911   22.407801
H   64.859978   28.414291   44.906273
H   56.302948   81.792488   41.420528
H   99.608383    7.454083   28.236252
H    2.390438   50.208046   15.265663
H   66.478165   20.848219   89.170639
H   71.128853   42.806564   40.758179
H   40.354221   98.960159   26.262337
H   64.317719   53.999958   37.888794
H   27.524462   82.994431   76.858139
H    1.900682   77.760666    2.331432
H   74.639137   68.068771   96.030380
H   23.993002   75.160522   45.273075
H    4.692814    2.209232   31.711493
H    0.128300   15.314239    0.205564
H   46.793770   93.712357   97.056725
H   97.577682    2.805184   57.367386
H   28.222197   91.026855   91.564636
H   68.689919   66.834824    4.219482
H   75.793427   91.259689   10.178130
H   92.131088   79.443794   37.933395
H   23.903614   43.791119   16.230762
H   94.997322   35.524220   67.468964
H   39.819397   17.065916   70.998062
H    5.396459    8.000320   76.451927
H   58.855526   34.963734   81.127739
H   93.081749   39.334431   71.562813
H   62.701904   45.956432    4.898611
H    5.368035   79.239883   68.606956
H    3.650282   75.764603   82.979271
H   23.319384   87.877258   89.833176
H   82.376999   25.387201   22.362717
H   17.196836   46.828796   79.635063
H   40.152981   86.431908   77.123566
H   89.672707   52.245285   53.808914
H   33.684937   18.673204   45.523788
H   55.899277   25.300974   88.695808
H   39.390163   10.596252   96.843369
H   21.645287   34.184162   35.441448
H   35.595997   58.666138   25.540648
H   95.001884   72.415154   92.438522
H   13.968493    6.146753   52.412495
H   73.100243   17.176819   27.050934
H   92.777161    5.040179   18.025063
H   79.299187   44.806973   59.468781
H   24.591078   57.353729   78.760796
H   78.670746   57.666218   40.557991
H   39.158367   54.711727   32.547283
