100
TIME:    2.964, STEP:  2964
H   16.879181   50.207390   96.432388
H   18.821266   65.449783   64.968216
H   30.703253   87.146408   88.545967
H   81.974106   10.533007   77.696960
H   68.622772   10.335172   85.338943
H   82.058357   97.996971   72.281364
H   97.627800   61.482437   22.241600
H   86.921738   45.025127   36.049473
H   80.767159    1.316782   13.513348
H   93.843437   58.942009   23.756502
H   24.550964   85.505630   54.241405
H   42.713913   72.260727   81.948540
H   54.721382   82.381165   30.531742
H    8.321242   95.939980   82.801857
H   16.553818    5.271114    8.294782
H   82.348053   52.486847   87.003273
H   85.759834   78.015717   43.212963
H   64.484093   50.561378   96.786804
H   91.431938    2.695062   19.517916
H   12.664856   42.870739   18.135492
H   88.388763   61.142693   76.793579
H   46.541916   48.018738   66.866302
H   46.170357   70.516197   47.547348
H   43.653809   72.230225   86.941139
H   23.574135   51.099998   58.430374
H   33.068256   39.291714   11.355997
H    6.489395   19.266592   58.783802
H   82.447960   94.789223   64.748344
H   75.619949   18.009333   17.062387
H   14.646604   17.481369   19.018017
H   32.706615   87.843170   74.876701
H   52.905922   70.617393   24.871712
H   79.138153   51.621712   64.817482
H    3.336730    2.089914   46.881912
H    7.093789   34.864563    5.216392
H   30.262981   17.322134   10.451142
H   64.084206   95.986801   42.016842
H   41.483215    4.704575   31.602695
H   19.960541   16.836519   57.078506
H   84.017532   34.703339   71.236488
H   32.682842   57.883518   12.176562
H   65.233727   44.884964   42.051956
H   36.771503   81.274170   15.566739
H   90.088104   62.449455   70.537437
H   99.550941   14.948050    9.748210
H   39.847927   19.450550   95.204201
H   64.890915   86.029694   53.912666
H   56.397709   25.900454   51.973442
H   51.668610   86.971184   26.238367
H   88.045616   75.857430   76.357941
H   43.318485   83.488220   84.668777
H   49.177143   88.702148   79.481163
H   70.362648   39.195007   30.724464
H    8.056026   58.849739   62.609528
H    4.794570   18.341316   25.558283
H   97.274857    9.416929   91.725250
H   84.156380    4.021646   37.888588
H    5.350951   96.974060   37.210770
H   24.041351   64.005020   83.935661
H   63.423912   55.611835   79.307381
H   46.672371   40.731915   83.298904
H   93.716454    0.353659   61.244835
H   75.287102    5.024736   30.220108
H   46.572395   57.917923   46.669636
H   49.969494   24.113937   71.593468
H   19.261818   94.923714   21.439297
H   49.761482   50.834446   10.163844
H   75.621956   87.051086    7.898940
H    4.626309   36.812187   74.336433
H   90.435852   97.222725   95.491791
H   27.912663   93.728798   26.594002
H   29.572107   53.155762   73.632782
H   13.733091   71.693596   85.749992
H   64.964409   61.813042   27.049217
H    5.078745   32.863430   26.089581
H   95.726707   97.536858   96.490448
H   36.066784   69.647842   43.469517
H   71.234436   56.912983   78.131149
H    3.648576   44.812527   50.751221
H   54.165230   47.528728   65.569962
H   68.883530   59.945599   57.139942
H   63.717606   63.584732   38.930031
H    5.331207   56.731079   12.206165
H   54.067921   65.794891   92.701599
H    8.006764   63.486050   60.425865
H   83.075012   17.926258   47.612423
H   65.113579   87.845970   64.878265
H    3.668841   67.989410   64.918343
H   17.194164   29.140966    3.950435
H    4.280596   87.327957   30.174137
H   45.321716   33.479557   96.055984
H   97.597061   18.415842   90.001579
H   75.452789   16.451063   48.215111
H   33.709713   93.021049   26.666332
H    5.343664   84.232544   84.196892
H   38.735855   78.686409   14.354706
H   27.333736   37.778316   66.727226
H   17.747015   41.474365    8.609806
H   67.515343   49.626934   96.770470
H   23.316744    2.574039   12.207705
