100
TIME:    0.431, STEP:   431
H   88.175941   82.496468   98.751419
H   89.281151   28.112850    5.187794
H   87.169617    4.912059   18.279221
H   81.548950   14.892756   16.538340
H   91.310623    7.304071   54.018837
H   21.332928    0.744560   21.428671
H   30.382225   90.440437   24.157534
H   86.010544   25.889118   68.621910
H   43.033195   44.854553   72.958092
H   63.062035   22.574383   24.567141
H   60.164459   83.584839   98.233681
H   39.390934   45.294395   62.249916
H   15.846814   35.631409   82.290794
H   33.741245    3.748395   90.038963
H   85.744652   31.524805   30.054159
H   84.194199   74.039497   97.263168
H   89.414803   10.499710   12.596591
H   10.354730   73.741074   84.604294
H   51.975655   96.432907   86.069565
H   80.982613   96.495331   45.591713
H   38.700394   13.309525   45.544518
H    3.674853   44.668808   82.556953
H   79.989555   91.116920   20.018665
H   78.996948   41.850925   75.065674
H   14.168722   51.992977   39.741226
H   44.682735   14.767192   48.775452
H   24.912786   24.560478    8.518812
H   96.174889   76.556808   81.021286
H   20.542969   88.195885   36.798035
H   17.520082   80.172501   17.651836
H   33.056065   60.692497   75.306175
H   92.971069   40.603088   59.364250
H    0.716182   36.947777   36.624840
H   96.312584   34.224030   53.593666
H   70.058647   26.340012   50.972473
H   10.028699   18.342978   19.161322
H   21.137856   88.751320   42.426342
H   46.175499   51.065693   52.854954
H   31.343681   71.307411    0.816767
H   22.598392   71.835106   71.945122
H    5.788418   70.968040   52.494976
H   92.885338   31.201113   23.049109
H   14.953523   66.084518   32.605011
H   51.836914   19.994600   22.872799
H   19.269764   14.886720   92.988953
H   72.446877   71.306450   85.008461
H   40.631031   48.991711   31.306097
H   56.262432   99.820801   95.245804
H   77.627495   96.754501   27.280809
H   34.929234   37.309490   53.519226
H   43.511738   28.033602   57.961277
H   26.078230   23.745029   45.768250
H   17.819620   24.507812   77.838936
H   66.707291    0.169615   50.834980
H    6.447052   96.288254    4.063370
H   94.105515   12.078983   77.954544
H   23.575592   77.110558   96.979027
H   93.965759   36.184242    2.453026
H   24.269157   56.979538   78.395935
H   30.577110   60.917038   51.350914
H   86.888229   58.525909   80.791260
H   83.614105   23.933670   75.854355
H    3.466769   77.762413    3.989681
H   72.636177   44.139015   15.438108
H   49.430038   26.420582   35.699211
H   74.868385   20.846821   71.669945
H   52.988884   63.260906   87.870529
H   50.593712   42.186935   86.806892
H   78.383842   18.817406   33.200947
H   39.117340   69.822899    0.824436
H    8.345652   66.079384   56.978245
H   38.429150   37.221550   88.177467
H   78.889587   96.988686   50.697872
H   20.704308   22.104834   77.592995
H   82.951706   29.256960   34.071095
H   35.847980   35.195450   66.927597
H    6.086588   89.188347   98.660217
H   52.229492   22.538353   38.242992
H   82.211800   52.239933   22.494259
H   78.388443   85.481468   83.790192
H   19.316151   33.740551    5.748795
H   73.662071   47.042313   50.739815
H   45.066349   14.451253   70.950500
H   79.819000   49.042820   24.063057
H   31.344065   21.924141    5.971873
H   41.373371   24.885189   71.713173
H   95.940224   72.015709   44.094891
H   62.893417   70.787132   91.259178
H   64.627388   70.174812   24.674435
H   28.229946   91.551819   39.619900
H   41.660862   96.704880   42.563671
H   10.176441   27.921083   41.736008
H   12.937817   40.544960   52.258263
H   88.885384   39.376030   55.877789
H   49.140430   11.122669   25.990219
H   29.520447   78.711601   45.187309
H   28.391340   92.414742   12.401758
H    8.447644   19.907379   49.139565
H   88.180321   38.708164    8.949566
H   66.008041   67.634010   56.174667
