100
TIME:    1.427, STEP:  1427
H   20.820127   91.158218   97.839554
H   61.575645   82.115242   68.014977
H    4.283629   76.568321    6.584434
H   81.716125   73.857445   61.946117
H   82.389542   87.137871   27.012428
H    5.888080   99.662117   20.066038
H   78.180595   57.696667    2.046047
H    7.726913   12.056160   77.172035
H   18.549614   49.093201   10.261985
H   35.842857   36.872963   63.572174
H   67.518967   23.660709    2.293983
H    1.373782   95.219017   91.354027
H   52.490074   75.371834   83.296562
H   84.425148    0.677601   65.836555
H   97.857262   42.560612   82.178238
H   44.148117   86.920403   14.587420
H    9.338755   76.366776    3.280765
H   31.638680   25.305832   50.074997
H   67.486671   38.218300   38.541943
H   54.070702   75.509384   13.489389
H   79.596436   14.154594   18.513416
H   99.177788   45.983414   97.748024
H   66.691521   83.016518   91.521271
H   86.457741   53.796360    1.092057
H   78.546501   73.000038   47.090965
H   40.115810   85.088623   55.419281
H   39.026947   83.158951   28.283491
H   12.136002   23.047237   13.941051
H   42.199768   78.560699   89.717827
H   55.710598   55.521744   96.831444
H   72.235878   50.010971   96.492096
H   55.858799   13.087354   67.159538
H   70.874588   64.076118   26.352385
H   38.395882   42.946632   11.634314
H   45.301506   51.049934   11.623634
H   96.626465   96.581680   15.734080
H   16.667221   52.276711   20.907171
H    5.011875   32.835987   23.141193
H   86.567886   50.045753    5.355136
H   28.786314   78.592644   50.308071
H   37.721260    5.147085   75.964035
H    3.370564   75.903282   69.842987
H   23.532423   72.057236    4.547559
H   88.236107   36.686600   20.258860
H   32.874146   75.587448   78.222244
H   59.677235   90.134621   88.965767
H   51.147877    2.718229   39.816841
H   56.315624   10.075705   56.872601
H    6.744807   14.265678   87.550552
H   55.818546   52.469250   83.858482
H   43.435749   31.876314   68.462921
H   74.482613   31.323771   80.382278
H   38.480965   30.282959   19.991291
H   43.645588   83.923149   94.786880
H   27.156349   83.603607   12.515221
H   95.351730   11.032238   44.048355
H   86.717392   48.371605   91.706932
H   19.800095   42.125404   76.799026
H    2.822250   99.062119    1.931362
H   64.849991   37.472141   23.022301
H   49.717205   12.210599    3.136381
H   48.264130   14.662766   30.787415
H   71.026337    9.842411   35.660500
H   41.028938   49.557014   88.396965
H   88.962196   46.872349   28.454588
H   13.682301   71.332680   30.560728
H   73.077591   97.698853   35.958630
H   81.793037   99.148117   34.421452
H   28.023506   47.251205   70.734596
H   59.292358   19.916666   98.728271
H   76.718346   98.307213   45.032810
H   56.303646    4.165754   61.101067
H   13.948528   47.720081   25.158047
H   98.783287   59.077454   18.397743
H   30.973675   30.674150    9.573925
H   59.396900   99.029442   99.911308
H   96.517021    2.863871   16.284235
H   99.023376   57.413803   93.247223
H   29.952555   49.322117   33.600563
H   29.542862   31.236147   97.983955
H   38.807270   44.044628   65.277046
H   48.392735   53.546951   67.452591
H    8.088546   31.073973   65.814575
H   48.335491   34.271832   33.089302
H   82.846085   59.625793    9.420776
H   18.447559   61.473042   40.878563
H   62.460823   99.598389   91.587875
H   78.927048   91.045670   80.909508
H   85.296333   14.719348   16.524639
H   40.172501   50.565971   75.228233
H   82.421242   50.484730   63.597363
H   83.870506    2.830468   60.710403
H   76.843239   70.387375   29.311926
H   85.152748   99.790199   23.034336
H   31.921356   21.907394   48.877037
H   11.785980   39.379814   93.742355
H   49.333603   49.572994   55.121109
H   12.104604   28.387726   33.204720
H   40.732933   43.001530   25.518131
H   27.862930   42.049671   60.245430
