100
TIME:    0.473, STEP:   473
H   85.335609   78.644844   98.712967
H   88.112846   30.390018    7.837067
H   87.891235    7.933677   17.786072
H   81.556000   13.162249   14.236115
H   90.934433   10.670556   52.880013
H   20.681644    0.698848   25.588072
H   28.181000   93.276283   27.441988
H   82.709427   29.522526   64.765800
H   42.000755   40.816437   70.314507
H   61.914238   23.177280   26.211931
H   56.257721   85.274811   94.187874
H   37.787800   47.399651   59.260262
H   13.175271   33.090363   78.116173
H   31.661625    3.618899   93.234978
H   86.255424   27.773317   28.035261
H   82.505508   70.366035   93.776840
H   86.038063   13.277237   16.420568
H   11.252187   71.698624   83.148239
H   52.629662   98.194656   88.282486
H   79.845711   95.614777   48.457039
H   36.208054    9.128174   44.404732
H    7.702155   44.724243   78.980904
H   79.428795   90.775337   18.816875
H   75.094696   42.354649   71.946564
H   12.666685   48.662060   40.051407
H   44.490154   13.515815   44.838913
H   21.291075   22.814590    9.352262
H   92.630882   78.517227   82.409409
H   21.456207   92.006493   34.812622
H   19.130426   79.133011   20.990604
H   34.708225   64.458885   71.982628
H   95.622986   39.442795   55.476097
H    3.674673   33.874809   40.408531
H   98.087151   30.374969   51.824226
H   69.014671   23.165146   53.529861
H   13.680532   21.642332   19.016806
H   25.166199   87.213234   45.735790
H   44.439705   50.296970   55.818653
H   29.455521   70.410835   96.791412
H   18.642467   67.903374   75.249443
H    2.918285   72.409355   53.484798
H   89.110619   33.086227   25.022345
H   15.315213   66.336380   35.638565
H   49.154877   20.698435   26.979328
H   15.626583   13.229672   96.582947
H   71.910469   72.096001   85.173164
H   41.074512   51.257504   31.664984
H   56.264675    0.253304   97.844528
H   78.855400   93.275864   25.605417
H   35.810108   37.948757   50.581802
H   43.508533   23.978662   58.404118
H   28.119238   19.847744   43.010910
H   18.690882   24.751343   75.399788
H   65.735092   99.484459   52.688374
H    3.103392   99.970047    4.419773
H   94.158066   12.034843   76.524765
H   26.238083   75.898674    0.973580
H   90.838318   32.217903    1.371159
H   27.581490   58.754105   75.171722
H   27.805672   64.145401   50.156334
H   89.537582   56.572861   77.516418
H   82.123444   23.542740   73.954178
H    6.315672   74.898369    1.108273
H   75.520088   44.367485   14.297682
H   51.097260   23.066113   39.610756
H   72.288246   18.758869   74.153313
H   49.619194   64.712952   89.898239
H   47.692497   44.588913   88.814735
H   80.476921   15.799553   30.566654
H   39.968094   71.935204    0.736117
H    7.011873   63.221661   56.474522
H   34.966213   35.827660   91.252357
H   76.151154   94.910988   49.620892
H   19.779854   19.446989   75.096809
H   84.976852   29.316721   37.254932
H   36.841007   37.887421   64.101364
H    9.899940   85.548210   99.403625
H   54.202728   19.792068   40.562618
H   84.224770   52.117039   22.962574
H   76.328690   83.194206   80.171844
H   20.138065   34.175060    8.258999
H   76.813225   47.316605   47.227531
H   47.723713   15.152284   74.950806
H   82.708038   52.636814   20.226814
H   29.298891   19.296898    1.900502
H   40.406620   26.427921   74.629768
H   98.745308   68.961967   46.097607
H   63.569534   67.424492   90.822746
H   65.498970   67.836281   24.330769
H   24.516590   89.823395   41.121456
H   43.379673   98.972916   43.450634
H   13.284096   31.079767   42.536133
H   15.632511   41.803307   55.507469
H   92.944649   41.923805   58.709469
H   48.414326    7.360454   26.955208
H   32.989471   77.053032   43.017967
H   25.057699   94.825050    9.986242
H    8.601853   20.264984   48.467613
H   86.179527   38.889210    5.431485
H   68.616379   66.555428   52.129501
