100
TIME:    3.698, STEP:  3698
H   67.241608   82.895935   95.760391
H   98.402916    5.243667   11.268497
H   43.320000   39.952507   79.933205
H   82.097305   80.292168   37.463039
H   62.048401   69.168510   65.436630
H   70.679207   97.201775   44.971581
H   59.156673   11.043547   79.641350
H   29.230789    8.526549   68.656700
H   62.724037   30.745865   67.312325
H   73.784325   69.481163   52.501175
H   56.276077   15.039341   83.539162
H   14.697235    9.052231   29.700891
H    8.033187   37.973358   57.577179
H   71.977715   93.677589   38.659863
H   25.482979   39.706772   73.014076
H   52.836182   88.288383   26.075266
H   26.736092   26.564884   10.031881
H   80.164024   14.867089   71.340515
H    2.866236   33.489204   58.185749
H   92.889336   27.285158   68.109673
H   44.832153   88.069580   56.870872
H   16.911209   48.993134    4.359416
H   36.370399   64.546623   26.546711
H   75.457222   81.033386   32.427731
H   97.323151   92.888931   63.850380
H   29.700758   17.421942   42.557083
H   43.196323   88.755569   73.345741
H   20.515642   29.049835   89.007439
H   91.579880   84.603653   82.366188
H   42.790421   99.313835   77.369141
H   61.596889   53.661747   16.804955
H   99.251320   50.338058   56.921669
H   30.839224   97.919518   30.941999
H   34.351410   34.823036   15.960300
H   88.848312   79.379601   49.909798
H   94.086815   74.983307    7.921978
H   34.485550   69.106918   99.853386
H   11.147923   91.274086   83.398964
H   88.978455    0.845789   85.948814
H   14.883518   65.989792   28.984846
H   82.519943   83.070847   29.468977
H   99.265945   77.827271   76.536606
H   43.093876   85.675751   68.583061
H   43.216309   74.747711   42.304672
H   35.881695   85.987183   72.558533
H   30.378368   33.450489   98.183388
H   70.625290   25.948025   60.963036
H   56.436909   33.458160   97.389244
H   73.124496   26.181335   96.958466
H    3.435588   87.023781   25.021618
H   43.262486   12.625362   92.407944
H   84.848984   20.592144   31.295170
H   85.583382   43.450989   88.095406
H   91.057152   46.871391   94.999786
H   46.353287   82.669861   31.799456
H   98.193253    8.644369   66.738159
H   30.688959   82.842339    7.698021
H   50.695305   27.657387   18.303223
H   81.930031   95.017685   27.585308
H   14.989694   12.028013   58.430672
H   92.972969    6.598943   26.070866
H   67.665367   93.521622   28.031380
H   25.117121   54.938408   79.887505
H   96.974113   61.910706   26.739323
H   79.103264   65.491951   39.948078
H   74.171211   58.434273   64.838425
H   90.870682   76.210632   45.602215
H   24.919777   29.030336   42.988384
H   41.210579   84.071640   28.300289
H    5.308298   34.140976   93.946198
H    4.603449   43.788216   17.788040
H   69.049240   28.795868   27.371597
H   65.874985   35.387768   66.934074
H   48.805599   15.362247   83.431786
H   40.466747   33.910625   81.731239
H   13.078843   44.580170   47.100582
H    2.708968    6.028160   56.450260
H    5.719096    8.916941   18.665895
H   38.844833   42.656536   58.943985
H   18.168587    7.552216    2.335287
H   83.241867   67.539169    1.010111
H   18.789322   68.378311   77.552856
H   51.771481   68.983826   82.116180
H    4.567144   28.605141   25.661896
H   72.267288   17.571850   89.272873
H   66.185486   44.888680   98.583405
H   14.135794   34.478203   99.878113
H   15.481989    9.223429   57.284904
H   32.428818   88.273827   97.945930
H   39.385693   57.131615   56.410217
H   75.359985   73.111870   11.556802
H   51.909737   73.613823    3.989801
H   22.502892   38.475769    4.976504
H    4.652896   37.543655   76.154991
H   92.653206   18.484951    1.063926
H   99.361191   49.700935   76.442345
H   69.072540   79.901329   24.514112
H   20.440603   47.723938   96.864113
H   32.549095   52.790920   35.290802
H   68.906746   83.736397   41.499908
