100
TIME:    7.815, STEP:  7815
H   88.825920    5.348457   91.991165
H   84.645737   28.347218   70.867081
H   14.103632   36.145844   31.603367
H   82.788330   10.672066   11.795385
H   25.169897   99.164055   53.808151
H    6.826648   92.741524   52.692223
H   43.385632   89.043594    1.596335
H    5.642708   64.697624   90.646187
H   61.520256   34.913086    8.160103
H   61.304390   28.596819   13.707790
H   73.322769   80.696167   86.969040
H   57.566368   15.415913   36.648338
H   45.413170   88.954437   48.473309
H   68.129158   80.987862   51.965870
H   75.526985   71.958511   75.077423
H   87.298538   28.200623   84.327423
H   95.671120   98.873276   84.818634
H   68.186737   14.560925   28.619759
H   66.982773    6.200577   75.085556
H   81.966568   39.852711   48.414131
H    0.523551   78.209656   45.130131
H   11.612000   54.458511   53.758835
H   81.400688   31.063772    8.753304
H   92.931625   30.318331   26.663612
H   50.074654   66.392639   94.255470
H   10.758984   95.717270   55.456848
H   88.182831   17.616114   55.032307
H   73.134056   21.217474   25.094164
H   81.100319   58.129841   87.753349
H    0.655692   97.417862    4.659048
H   23.624327   22.842125   91.081154
H   59.201138   36.590900   75.790382
H   20.834692   96.700249    1.833874
H    8.303750   57.524574   42.517136
H   86.461815   67.964867    0.521748
H   51.982121   97.532761   94.856911
H   29.359516   18.333170   24.256620
H   40.983765   15.932354   73.923485
H   15.197360   11.142012   86.981026
H   27.108131   80.569473   52.903160
H    1.152200   24.334730   26.462492
H   41.608376   72.249680   78.929131
H   78.543121   10.367720   65.957893
H   80.329132   43.816856   44.844418
H   78.761955   23.553005   24.860916
H   77.246941   11.973956   14.910570
H    2.791050   49.844734    0.479803
H   56.664608   75.861954   52.125454
H   93.471992   85.211861   32.729965
H   89.817627   49.682735   37.107452
H   42.964977   15.155676   35.808182
H   84.937286   38.564739   61.030762
H   70.978691   67.322754   48.988167
H   95.716827   79.696289   76.670975
H   18.553020   43.474335   66.819229
H    3.329332    4.313102   26.585754
H   91.689407   64.047905   99.258873
H   44.134445   38.857353   12.258080
H    6.626437   68.980812   11.528332
H   43.308891   28.474987   41.333397
H   52.677013   15.138277    5.077872
H   21.548317   55.201157   41.750595
H    4.620412   74.001373   97.572449
H   79.682365   84.334671   14.960549
H   42.513908   36.673138   23.346083
H   21.260098   53.766502    8.267898
H   60.556488   18.547760   44.370892
H   40.530342   64.485588   39.804794
H   46.401512   88.250282   70.090668
H   88.743340   41.171024   85.268112
H   73.870766   63.669662   68.406044
H   29.721462   92.110741   28.882875
H   97.438019   31.750845   61.375858
H   58.166798   54.807323   38.812286
H   38.926987   39.822369   93.840347
H   10.406657    8.440582   70.077980
H   76.551476   49.393066   29.341063
H   99.143234   39.718578   46.033611
H   36.270546   30.563602    4.871716
H   16.270466   83.299095   47.651924
H   63.806602   10.132119   47.074783
H   27.728153   95.152039   33.201595
H   12.190480   37.812534   74.204712
H   87.808769   80.905518   49.637119
H   71.804565   60.044331   90.176491
H   71.431381   96.111404   84.480438
H   89.100960   35.138313   96.192619
H   81.715721   79.710449   14.548561
H   17.867523   59.045418   64.274178
H   75.388336   87.745255    3.585496
H   43.844715   95.419609   98.500290
H   56.529758   83.242279   82.433113
H   86.410141   62.009647   23.350527
H    2.555945   87.299889   53.752209
H   21.475330   49.710159   95.667603
H   39.408569   87.126587   63.793999
H   42.284111   16.166313   87.740669
H   23.192560   73.144569   21.995352
H   36.424339   70.549263   90.448784
H   24.631296   78.086990   44.896908
