200
TIME:    0.599, STEP:   599
H   20.502489   61.283550   21.478254
H   31.164066   38.119152    4.471297
H   10.613350   84.851524   63.030876
H   29.943884   81.169838   35.111935
H   11.398548   92.828049   48.496944
H   77.939697   43.071171   54.923466
H    8.560493   55.049408   56.600086
H   10.933616    4.388491   12.329453
H    2.007803   82.124184   38.961617
H   98.223755   69.870171   81.912071
H   24.706686    2.263136    4.306405
H   32.262314   51.605068   29.847786
H   19.985386   98.922325   46.578026
H   87.435516   54.721577   59.565029
H    2.289316   74.708191   42.095280
H   18.836220   11.174652   46.578617
H    1.095711   24.532244   98.001961
H   28.037508    0.425201   37.129021
H   76.969994   16.704901   47.768642
H   91.198395   74.774559   23.554104
H   62.393448   94.679222    9.393201
H   82.036766   62.536522   56.740242
H   84.254822   59.931236   40.522202
H   16.212248   91.332230   90.460373
H   18.850502   27.142435   32.600269
H   18.363916   78.268623   95.099625
H    5.847976   66.000206   63.516144
H    2.749299   84.938950    1.675905
H   26.188980   45.617744   36.236217
H   76.826607   30.381493   86.207489
H   12.892789   66.447762   16.633730
H   25.397758   71.920395    2.441845
H   18.449036   16.710381   77.564217
H   84.544975   63.969589   44.565239
H   30.760376   74.966843   31.488224
H   21.334431   41.736591   83.593124
H   96.568405   66.680504   88.650063
H   15.157539   54.041733   99.026131
H   39.783592   33.545341   52.411572
H   86.639885   38.212193   49.672943
H   80.611130   88.453377   13.440344
H   31.208239   35.578876   29.186018
H   70.237930   79.534943   63.658764
H   36.481491   80.670067   31.587860
H   41.043224   87.248222   57.319160
H   36.007793    4.495587   46.592255
H   86.739365    8.623853    4.050133
H   81.375824   65.545128   34.741714
H    0.964130   15.128634   61.425163
H   49.270340   19.421595   90.524605
H   69.668182   65.952194   13.641300
H    7.414809   41.877056   71.260094
H   61.859028   84.153793   12.620948
H   17.063581   89.759644   87.019470
H   62.003189   68.400887   79.162933
H    0.703529   63.505901   90.403809
H    4.405944   18.103981   45.803623
H   71.330856   66.924980   98.823769
H   20.605904   81.412491   15.809307
H   34.800156   93.973305   60.357750
H   49.256832    8.372219   31.747667
H   96.388512   17.275328   51.818176
H   81.337669   32.643349   72.773270
H   32.824333   65.664520   11.682957
H   77.119347   81.430984   32.609730
H   24.657017   30.508556   39.316269
H   72.765236   15.589449   93.252205
H   95.331032   92.266136   94.379135
H   29.292168   10.704618   57.435883
H   43.170425   47.887123   50.963421
H   58.307674   82.801338   82.884109
H   22.050882   14.385515   42.251839
H   88.887833   31.869564   87.474495
H   19.561138    1.073624   71.024025
H   83.516403    6.682953   50.732552
H   62.387909    6.402337   60.531559
H   93.910202   43.314915   67.067558
H   13.258382   12.507133   35.691551
H   14.259926   45.687637   26.987278
H   62.866371   88.664772   77.236298
H   58.604893   24.034584   95.803879
H   42.422180   62.134140   76.758995
H    9.599081   17.604229   79.775833
H   12.967098   73.598747    5.552116
H   26.124157    3.120116   47.608356
H   34.781292   73.213486   20.309589
H   51.945194    3.532186    2.594367
H   72.346031    5.182771   24.982885
H   76.674057   72.931023   78.463684
H   21.646008    2.138637   50.915936
H   26.193911   37.991920   79.157677
H   81.554764   91.685257    6.201124
H   64.313805   12.813242   85.505318
H   43.929672   81.535919   78.962158
H   34.221481   52.070038   82.891724
H   54.405037   35.735798   12.182254
H   84.175453    1.862061   13.790378
H   97.025772   34.017025   51.992611
H   28.883217   66.181786   54.153492
H   73.446503    3.760791   27.338053
H   25.883512   90.352356   85.844612
H    3.921664   82.087914   63.884338
H   30.621130   24.049953   35.519440
H   39.126228   68.602310    4.418847
H   24.862846   22.754887   36.726715
H    1.635622    9.196339   27.082985
H   82.664459   34.554428   54.588470
H   62.635841   48.058155    4.859673
H   81.920013   35.558056   16.492069
H   15.899093   23.054953    7.294302
H   51.917866   92.947113    1.048434
H    0.409039   72.372986   94.600418
H   50.858814   84.440605   86.126617
H   62.008080   11.657751   65.696320
H   51.870079   96.917770   14.185068
H   99.387527   95.295433   95.129814
H   17.814724   13.497789   88.365219
H   38.949711   44.666832   26.802452
H   32.496136   71.191994   65.796722
H   80.256668   53.839962   62.734867
H   44.301460   24.145061   75.756027
H    2.799008   18.975582   58.748196
H   40.891487    6.681426   34.679054
H   98.788078   54.400204    2.144062
H   66.174202    0.063395   80.939774
H   60.874798   72.174545   18.599781
H   86.463127   50.866165   57.190186
H   67.576096   90.385612   38.034595
H   96.885651   39.488708   76.709015
H   85.145760   22.447771   72.617691
H   63.100754   72.367401   17.130756
H   67.920334   89.612015   17.793087
H   91.265480    0.061033    0.045646
H   83.317314   22.207390   54.125614
H   22.160992   94.878830   39.920174
H   52.796394    1.166107   78.392685
H   69.487068   87.479332   73.210327
H   94.280495   53.011787   77.526001
H   55.696884   49.354134   71.465179
H   43.642410   91.872322   85.482224
H   68.390724   52.511372   26.506638
H   40.711456   51.918705   54.615761
H   43.464924   63.368713   87.275337
H   41.262932   13.532521   84.073433
H   57.176624   57.860847   60.807697
H   59.093952   68.160736   12.652393
H   53.222008   95.205635   44.711388
H   32.849731   60.055344   66.765282
H   74.782562   49.803432   94.375603
H   20.905813   92.594238   76.562370
H   63.566311   67.406860   48.634003
H   48.899540   97.176102   36.902081
H   92.853233   18.414982   90.862328
H   19.399897    9.383084   67.081055
H   27.848244   63.359924   67.247955
H   74.159363   44.419064   65.105919
H   63.069103   71.650017   85.006638
H   51.150105   30.899879   18.134771
H   95.951004    0.381640   89.291061
H   59.654785   42.295898   92.018005
H   57.482349   69.824463   73.870636
H   26.748379   21.195868   32.433895
H   80.672523   18.917627   37.082779
H   24.452343   30.725998   55.839474
H   55.516800   34.269855   13.351974
H   18.098936   53.016495   60.339363
H   68.718018   91.760384   56.027473
H   23.945824   47.266308   62.857838
H   98.951035   27.002731   36.009228
H   42.855999    7.750547   86.360657
H   72.506653    9.903161   35.945946
H   33.760963   52.112667   58.560543
H   44.609341   62.028282   80.322769
H   66.805267   65.951035   82.568428
H   54.752167   92.335938   82.351257
H   11.991256   49.600029   23.631168
H   31.729744   64.135811    1.925475
H    4.911748    9.543228   69.470688
H   66.420601   13.033854   64.936028
H   69.223160   58.306068   91.449326
H   74.863503   98.054276   33.372341
H   26.468773   30.544277   82.722054
H   49.105659   89.789238   13.179176
H   59.298977   25.884682   90.397514
H   90.165489   72.763435   76.917801
H    6.775959   39.253052   85.750954
H   43.852570   98.375290    7.219730
H   73.173866   82.431221   38.088398
H   96.221748   62.774323   70.646362
H   56.141865   56.320438   70.238724
H   64.970146   19.146877   76.737801
H   44.709911   94.685349   20.051706
H   12.074673   26.064764   66.030258
H   28.831711   77.858589   40.548225
H   72.574799   38.220139   20.641958
H   76.204605   11.264361   24.647898
H   11.847592   95.348427   15.583905
H   18.476135   90.271210   36.842175
H    7.125963   12.616405   61.961327
H    4.263417   22.829905   92.761162
