100
TIME:    2.305, STEP:  2305
H   61.444489   10.641057   97.035721
H   37.152519   29.717783   23.398611
H   19.375685   39.734528   96.278679
H   81.863495   37.684959   13.817806
H   74.525375   57.513432    3.207413
H   92.274788   98.710915    7.017296
H   32.165791   16.981636   70.706856
H   38.717842   88.013885   96.555992
H   96.966637   64.677032   54.996441
H   11.851255   49.479744   97.949516
H   85.849548   58.989170   17.720552
H   67.867081   39.228271   28.856180
H   96.641823   22.251869   96.031029
H   40.951180   97.971199   32.651730
H    8.537037   64.135315   39.973190
H    8.845093   10.125428   41.706802
H   38.748886   34.430336   83.217972
H   50.401482   82.608391   19.635159
H   81.165230   75.051941   84.798843
H   30.417915   56.863026   73.267769
H   27.494659   26.747265   94.682388
H   83.362946   47.143906   22.986206
H   54.968956   75.875801   66.401489
H    4.882055   64.326569   35.884819
H   47.143425    3.367142   53.568520
H   36.089947   58.925159   73.123650
H   63.317162   46.661747   45.706570
H   38.052750   64.029320   42.963184
H   61.290802   58.219521   48.213249
H   89.377800   33.791458   66.629478
H    6.774714   28.747614   27.017456
H   11.296230   88.827980   85.878685
H   32.718380   99.838036    5.449559
H   75.492775   62.483261   74.645264
H   23.476131   84.679718   65.085365
H   72.965195   65.555290   12.716153
H    0.878924   20.122152   90.090393
H   68.719521   16.766026   85.098900
H   47.779198   31.193319   20.940493
H   46.087933   96.396477   19.386396
H   77.719337   35.273632   96.649338
H   24.460938   15.306617   11.092443
H   31.095152   77.322342   67.964897
H   32.168755   51.403442    6.105033
H   56.713116   40.946705   53.356300
H   48.349888    6.881123   92.529427
H   59.738323   50.191742   47.582703
H   56.362514   19.115477   11.198219
H   32.407219   41.548908   52.528030
H   74.229301   65.832054   22.450176
H   43.368763   47.110878   77.720398
H   17.151407   49.852764   22.742657
H   56.694481   35.373901   69.000145
H   23.315311   69.601524   33.528900
H   57.260170   60.574574   19.964857
H   96.450302   10.109505   14.159164
H   42.378208   23.037468   75.212090
H   54.421722   59.208862   54.184525
H   72.066551   36.161221   34.526932
H    6.913384    4.957045   98.050911
H    5.101463   71.377388   34.679714
H   17.103806    6.488789   91.059982
H   30.579109   49.969810   75.426193
H    1.319055   54.333122   64.563316
H   23.810787   76.748077   10.220983
H   59.745430   27.684547   82.474937
H    2.633635   28.053179   78.347427
H   21.143837   49.362915   76.394928
H   71.784325   84.163734   15.666163
H   77.082092   64.079659   96.879456
H   48.838737   38.567833   34.500965
H   83.909180   75.026566   25.382616
H   56.701492    4.293003    2.644049
H   79.464500    3.513906   66.215553
H   73.303734   31.923441   76.132431
H   80.150673   55.302544   40.832211
H   76.234558   26.764513   31.815104
H   40.273418    0.001809   41.737064
H   72.044479   46.748219   43.395592
H   86.483742   83.419266   22.343269
H   55.989201   53.127941   17.753292
H   14.269522   59.280960   94.034401
H   63.640385   45.730316   49.439701
H    8.732711    9.403414   52.893555
H   40.095566    4.704248   24.308426
H   98.238770   93.720665    1.849333
H   21.100470   35.760651   33.454697
H   93.061111   20.750473   71.776222
H    3.517036   65.833443    9.341934
H   62.546490   14.440376    6.616980
H   18.352753   97.895569   82.139114
H   48.836178   68.860649   77.442207
H   33.176655   96.699509   97.235947
H   70.015511   53.048893   82.232506
H   16.738960   43.262177   69.053246
H   84.305115    4.709909   48.392776
H   79.642441   99.959923    4.626678
H   15.328309   35.863373   19.154675
H   98.908745   46.786243   51.970749
H   82.389603   19.497314   75.681183
