100
TIME:    1.699, STEP:  1699
H    2.426329   66.214371   97.590530
H   54.009483   96.861580   85.172691
H    8.959135   96.137413    3.391107
H   81.761780   62.651390   47.035839
H   79.953262    8.939855   19.637611
H    1.670053   99.367439   47.003689
H   63.924015   76.062859   23.316872
H   86.348244   35.586887   52.198151
H   11.863335   22.941589   93.140694
H   28.410009   40.778481   74.222160
H   42.218185   34.605289   76.092667
H   90.993393    8.852722   71.992455
H   35.189171   58.915535   56.261513
H   70.957130   99.839058   86.534554
H    1.165429   18.265713   69.104507
H   33.211838   63.130287   92.009537
H   87.470413   94.354568   28.045008
H   37.451302   12.078382   40.645309
H   71.724220   49.629799   52.871166
H   46.743187   69.732040   32.008430
H   63.455566   87.076416   11.130909
H   25.259159   46.342422   74.588844
H   63.059929   80.804359   83.739288
H   61.186012   57.058567   80.892014
H   68.817986   51.427521   49.097679
H   38.868618   76.982910   29.925421
H   15.571743   71.853287   33.681072
H   89.185349   35.743282   22.931833
H   48.114075    3.238840   76.859917
H   66.140526   48.789810   18.454166
H   82.935585   74.402817   74.968170
H   73.033112    5.572637   41.979118
H   90.032791   44.174995   50.856293
H   49.888313   18.019386    0.175738
H   38.540520   30.488899   28.185768
H   20.276260   17.948835   14.799001
H   42.755112   42.315773   42.339787
H   93.769173   27.857594   42.334675
H   74.340836   44.239357   79.286179
H    3.166995   53.129108   71.708817
H   19.133736   14.480197   82.372238
H   78.924744   88.109581   82.622040
H   25.875319   73.688339   24.194214
H   70.866722   41.245804   46.852947
H    9.280251   64.854538    1.497704
H   56.168079   95.322609   90.069771
H   54.019947   17.391558   42.141060
H   56.330151   12.876181   73.702431
H   14.694921   91.738609   76.701431
H   61.523258   56.609264   64.833092
H   43.414997    5.615755   71.330841
H   87.701607    6.084188   62.527126
H   44.123421   31.860107    4.193867
H   37.347370   79.486382    6.789259
H    5.501938    7.447998   14.823357
H   95.692062   10.746380   34.788834
H    3.961905   40.523216   17.576620
H   99.546234   16.437893   69.793167
H   24.273552   10.555068   81.050644
H   46.901531   58.379734   15.286021
H   66.874924   99.561714   81.928123
H   38.610321   12.130508   18.479431
H   89.474823   91.293877   17.000343
H   59.707771   51.036629   81.013420
H   99.757362   25.147457   53.786350
H   96.973152   57.810707   46.643490
H   51.254837    7.102649   49.090466
H   63.004219   14.704659   47.424625
H   41.580757   27.707016   53.675232
H   64.802307   33.597511   98.155518
H   68.081383   79.800621   41.770603
H   33.877010   95.138412   81.014946
H   96.213181   34.266590   18.183315
H   92.798424   41.863708    2.231957
H   44.086914   31.061174   30.194103
H   65.827339   16.462175   81.608086
H   21.212801   79.289536   21.095720
H   11.802440   39.627304    8.268443
H   42.991005   48.525242   36.634499
H   16.203506   16.422365   74.550850
H   44.130146   46.858593   81.534126
H   68.801788   55.323318   44.708450
H   25.298420   35.614288   91.721313
H   67.047188   57.547222    8.245064
H   69.602188   42.611267   83.053513
H   12.186695   71.463554   59.766991
H   80.627083   79.821777    4.557974
H   83.305710   69.268570   78.082558
H   90.940865   99.575111   14.299389
H   16.123749   39.374443   84.952599
H   93.552589   65.171051   69.341507
H    3.995823   23.286707   65.892921
H   94.295631   78.538742   50.354538
H   11.442057   16.289125   41.373344
H   27.217926   97.542816   55.127525
H   34.252045   28.638929   79.693283
H   27.743477   65.182610   39.478287
H   13.103292   30.703644   28.852283
H   27.775753   44.174015    2.734502
H   44.755020   35.062489   34.048164
