200
TIME:    0.106, STEP:   106
H    5.353598   62.919712   13.048260
H   26.769938   30.921780   84.457314
H   20.946312   63.272995   38.747978
H   13.325633   75.407539   48.003761
H   16.632912   80.333038   55.585098
H   93.977844   56.451965   69.516106
H    1.417843   55.399208   47.057690
H   99.885765   83.099945   29.828762
H   81.986565   89.515121   50.988346
H   15.578274   76.775902    1.357860
H    7.522994   91.731636   88.727142
H   30.223694   38.446190    6.357403
H    7.885310   82.560707   66.783684
H   10.737583   52.641582   35.808712
H   26.091486   70.913048   43.308296
H   33.206234   31.487507   57.213669
H   77.903671    1.442669   21.937958
H   39.744209   76.725281   45.905994
H   60.567005   34.553036   40.511230
H   89.629936   81.544884   42.665226
H   56.476936   70.069092   31.979618
H   93.012215   43.692451   75.738525
H   99.017891   63.515747   52.351463
H    5.788825   86.867867   92.010857
H   97.422157    7.314581   50.191830
H   18.772017   56.389843   11.382254
H   96.301064   56.108006   43.694138
H   91.435089   64.601646    0.378684
H    5.424800   60.602730   39.123009
H   99.104736   17.174658    3.261055
H   13.536440   45.850925   16.030983
H   34.362797   60.365707   90.304039
H   30.361046    6.102160   71.542389
H    0.861561   63.431725   35.948120
H   54.418949   95.337997   35.238361
H   37.438400   52.977211   77.939903
H   82.418427   77.321198   84.948952
H   39.543240   41.289074   21.192341
H   58.029617   51.198963   41.453049
H   91.367828   40.239529   68.930756
H   80.464462   11.483535   97.076233
H    6.669585   45.916786   43.804459
H   79.114578   90.860191   45.352558
H   37.579788   56.726257   13.955867
H   24.198717   72.206818   39.528252
H   42.945496   17.325871   41.230534
H   77.448975   32.777130   93.240807
H   93.378105   65.552650   52.464920
H   81.898132   33.837276   61.069721
H   66.912369   17.196791   11.381653
H   81.395889   72.192177   33.179272
H   26.260546   33.391582   60.660179
H   48.563309   98.257027    6.175105
H   24.400921   79.355911   79.718803
H   82.870834   79.365051   95.107048
H    7.023439   75.651192   74.260345
H    5.812902   16.238380   51.091999
H   65.944687   55.464329    7.721974
H   31.008696   71.888901    3.885543
H   46.202511   96.741615   69.471359
H   50.853500   17.990782   46.151550
H   87.529083   16.107447   48.039242
H   67.755646   22.430563   89.405701
H   20.879345   64.961159    0.675692
H   69.194305   74.081421   12.450039
H   43.996056   11.355234   30.454666
H   91.180519   25.988499   83.066628
H   98.091820   91.145271   84.618584
H   11.756201    4.042430   63.675865
H   46.008320   39.294453   50.989750
H   58.523949   74.274490   69.697021
H   35.906277   27.344046   45.702824
H   73.240860   23.346478    3.982576
H    3.499845   11.910050   56.671894
H   77.513382   98.702278   73.913391
H   49.926750   23.807476   63.753105
H   95.993958   24.961695   74.040993
H   31.518440    3.529865   52.549660
H   10.511799   23.723223   37.906307
H   70.295212   91.414276    0.616499
H   37.680828   32.366745    3.122646
H   20.744465   70.999901   91.999748
H   11.522511   12.196433   94.200386
H   29.043798   57.477852   89.484100
H   43.679985   97.906891   61.579674
H   20.891972   90.462769   30.572273
H   29.849489    2.504883    1.464127
H   76.445839   23.531569    6.388022
H   61.589073   71.717384   76.678673
H   24.115295   80.040916   56.339718
H   46.859879   33.736019   81.350510
H   84.988823   87.359772   95.443954
H   40.894100   18.373371   99.546219
H   66.036835   99.247841   65.425270
H   21.729458   58.738808   62.358833
H   74.821327   24.713333   35.361965
H   77.487877   18.913946   92.558121
H   10.578436   26.356461   47.324848
H   40.054253   71.120361   52.406372
H   64.874519   95.749802   27.217691
H    3.887695   76.721436   62.629807
H   85.589424   74.629272   66.603752
H   20.401701   42.066956   28.630173
H   15.436956   67.692078   84.841095
H   25.516371   29.233711   20.743107
H   82.118187   33.333538   50.164352
H   59.310604   28.432924   56.882858
H   65.540443   29.129456   23.923075
H   69.391151   41.781113   92.653008
H    0.062198   29.928713    4.881434
H   45.431519   97.231224    0.701572
H   80.613388   59.975159   88.984810
H   59.421394   78.719681   96.850060
H   63.678093   22.286221   78.409485
H   68.321968   76.388641   31.471073
H   19.507030    9.717470   72.889297
H   38.084324    6.555807   82.617966
H   41.450970   20.400860   36.657036
H   13.773395   52.682682   90.162369
H   67.246361   44.000423   44.344032
H   39.156013   20.868977   91.910774
H   24.070934   30.654392   44.246536
H   29.005804   27.474056   20.054041
H    6.051576   72.141197   23.733173
H   80.925941   12.269670   97.245056
H   42.813076   58.685810   28.118670
H   98.717415   48.564255   76.229843
H   78.359718   86.519005   33.870846
H   90.818687   57.334156   87.943993
H   61.250275   24.784473   64.218727
H   43.199760   89.970245   98.290466
H   86.843391   84.722336    6.166973
H   92.875313   76.075279   96.378372
H    7.491282    9.567259   48.057549
H   97.806396    3.793027   62.574432
H   65.927063    1.798827   85.655739
H   68.670868   86.223061   48.667900
H   90.075371   68.404335   85.315636
H   42.810699   42.459686   71.581779
H   43.375359   15.516736   99.180847
H   43.983700   67.009659   10.581489
H   63.407089   36.939362   43.123135
H   59.313126   54.294598    3.903917
H   63.853249   31.378437   75.903908
H   34.003307   74.211182   44.686802
H   41.030350   59.666779   36.263901
H   41.562004   97.364616   48.241360
H   46.311394   78.406685   69.593773
H   61.603001   70.386520   99.276566
H    5.171623   87.182281   95.006950
H   80.943428   59.034222   52.355801
H   28.146788   10.817453   52.351585
H   69.950729   36.849072    8.168831
H    6.367615   98.066681   79.263878
H    8.298931   50.340214   58.328735
H   59.524178   43.196644   49.938377
H   57.908611   56.865284   79.169113
H   44.140938   38.809875    6.584757
H   18.514738    2.239239    7.574185
H   65.181602   62.411285   73.098709
H   52.639687   89.853340   86.978737
H   49.895580   23.750725   36.704842
H   59.451321   40.412102   37.287769
H    6.356079   16.243145   76.932068
H   60.237221   17.541510    8.507900
H    9.604999   68.702400   63.034328
H   77.207253   99.734322   50.801159
H   23.515156   24.835846   42.471638
H   92.252174   28.605982   37.173347
H   20.357834   11.470935   91.912323
H   81.924927    4.040248   35.987320
H   50.792091   70.423859   57.046623
H   35.083870   83.212051   94.194412
H   72.872337   77.756470   71.140152
H   77.665955   96.044571    5.531697
H   96.770020   46.937035   23.158186
H   36.794323   48.735184   81.302483
H    0.542392    9.073067   63.166759
H   79.028450   24.494631   70.702087
H   92.674812   53.017693   84.494698
H   83.864273   80.387489   44.834877
H   16.524858   29.942471   64.724274
H   71.803940   90.304794    3.417898
H   48.563164   24.972166   72.260567
H   83.790100   94.146378   78.948898
H   96.455132   35.093063   83.283546
H   26.686327    6.819910   96.296280
H   96.858719   61.548748   20.837845
H   10.498920   60.575848   65.011948
H   47.176826   59.002239   64.010025
H   41.418896   35.457718   80.258369
H   48.751419   81.287628   26.331182
H    1.124022   14.336116   54.736641
H   37.444721   58.182716   30.612642
H   89.493088   60.240620   22.254612
H   75.000992   10.054636   31.402237
H    8.570567   81.905571   98.943924
H   32.803886    0.069363   50.745789
H   13.700231   11.236952   84.010017
H    9.405401   39.532436   99.610474
