100
TIME:    1.148, STEP:  1148
H   39.687416   16.743752   98.094986
H   69.336525   66.989403   50.415707
H   99.488678   56.495617    9.860466
H   81.669296   85.351891   77.238274
H   84.888519   64.774788   34.577477
H   10.214592   99.964378   92.435722
H   92.804085   38.856419   80.227867
H   29.655762   87.918686    2.787796
H   25.407967   75.917831   27.824183
H   43.467506   32.866936   52.646065
H   93.470871   12.434636   29.168627
H   12.023144   81.234108   11.213358
H   70.236969   92.251640   11.027396
H   98.239769    1.537755   44.603947
H   94.464272   67.480438   95.588425
H   55.365845   11.323658   37.746567
H   31.769047   57.916061   77.878120
H   25.676468   38.873535   59.747360
H   63.140488   26.513124   23.843950
H   61.586792   81.435410   94.493858
H   96.152695   41.930710   26.085915
H   72.425529   45.615166   21.504864
H   70.416573   85.285606   99.503525
H   12.379929   50.450199   21.813675
H   88.525383   95.128975   45.032608
H   41.395100   93.402939   81.570572
H   63.086525   94.755569   22.747000
H   35.676201   10.024211    4.718981
H   36.133255   53.247379    2.906452
H   45.012249   62.426926   74.651421
H   61.260807   24.991095   18.569122
H   38.242496   20.795219   92.987984
H   51.221958   84.489403    1.217859
H   26.607689   68.515388   23.387583
H   52.236488   72.140114   94.634583
H   72.368927   74.665604   16.694227
H   89.907188   62.493996   98.923347
H   16.543015   37.942501    3.453484
H   99.109604   56.001579   32.096565
H   55.064026    4.710869   28.355986
H   56.787140   95.573341   69.390915
H   28.445488   63.382744   56.735065
H   21.129232   70.384155   84.394264
H    6.052226   32.010063   92.979500
H   57.074211   86.596573   54.346992
H   63.276699   84.813118   87.833351
H   48.201893   87.668686   37.432808
H   56.300724    7.203157   39.609646
H   98.589592   37.371643   98.678879
H   49.967022   48.222691    3.373148
H   43.457035   58.811638   65.521194
H   60.923424   57.213917   98.696762
H   32.693298   28.665222   36.195541
H   50.105892   88.474098   82.475052
H   49.368301   59.145557   10.147684
H   95.002640   11.325453   53.546173
H   69.028717   56.421974   65.171791
H   40.575867   68.473228   83.985184
H   80.817024   87.273926   23.350410
H   83.262390   16.026487   30.957726
H   32.117931   25.184578   24.888870
H   58.166382   17.259933   43.412148
H   52.101738   28.868912   54.800880
H   21.869963   48.039322   95.970528
H   77.889214   69.156181    2.471818
H   30.821724   85.202644   14.064133
H   95.461960   88.052032   22.488091
H    1.065421   83.192123   21.083639
H   14.117428   67.298370   88.231697
H   53.640923    5.883520   99.315765
H   85.577583   17.291052   48.378971
H   79.308853   13.425701   40.672882
H   32.140610   61.519802   32.312275
H    4.923522   76.732666   34.979546
H   17.521980   30.277166   88.423759
H   52.800365   81.149193   18.684147
H   71.186668   27.045794   11.347507
H   85.915451   75.656685   77.840408
H   16.578554   50.139500   30.489067
H   43.225510   46.432175   22.019836
H   33.347408   41.158245   48.601589
H   27.458176   51.724869   90.782059
H   90.434532   26.417658   39.241123
H   29.141897   10.397439   58.572914
H   96.430817   77.076599   36.466652
H   24.869549   51.223827   21.504036
H   43.827049   19.883980   78.284119
H   74.435699   13.382883   83.808662
H   79.506538   30.252859   18.807564
H   64.839188   62.045517   65.253609
H   71.003426   35.420620   57.705395
H   63.227329   81.846855   55.395287
H   58.941704   62.026733    7.727050
H   58.187172   82.867821    4.222879
H   36.744785   46.899300   42.465691
H   88.741653   50.397453    8.153252
H   71.479568   33.561657   71.166504
H   11.080215   26.012207   37.668396
H   54.023918   41.798870   48.888042
H   10.536118   49.216671   87.116890
