200
TIME:    0.091, STEP:    91
H    4.892680   62.969494   12.791769
H   26.636242   30.702768   83.848373
H   21.260710   62.616447   38.009148
H   12.820019   75.232216   48.396008
H   16.792185   79.952866   55.800762
H   94.465820   56.859089   69.960136
H    1.200523   55.409851   46.767353
H   99.549652   82.452209   30.361198
H   81.377396   89.739998   51.354271
H   16.106304   76.986015    1.949482
H    7.000156   91.411201   88.253128
H   30.161667   38.045818    5.642684
H    7.517154   82.062889   67.398460
H   11.446602   52.578297   35.085903
H   26.815697   70.797577   43.345203
H   33.643456   32.105545   57.537251
H   77.198029    0.740149   22.666231
H   40.100407   76.004189   46.173042
H   60.067928   35.096058   40.290417
H   89.582214   81.750877   43.246700
H   56.296921   69.320305   32.666836
H   93.346153   43.119102   76.316566
H   99.467072   63.624809   52.711380
H    5.474298   86.736488   92.059265
H   96.770187    6.711292   50.727070
H   18.784433   55.724197   11.877668
H   96.010612   55.807026   43.091034
H   91.090851   63.982861    0.339216
H    4.793036   61.058662   39.210842
H   99.782570   16.772827    3.779909
H   13.556024   45.224247   16.012644
H   34.635567   60.014145   89.934738
H   30.723480    5.779393   71.359169
H    1.358061   63.415359   35.685936
H   55.138783   95.957809   35.352459
H   37.928379   53.319218   77.767899
H   81.987900   77.644951   84.836342
H   40.285217   40.901062   21.866770
H   58.584770   51.736092   41.119625
H   91.511681   40.301212   69.516693
H   80.460312   12.184959   96.578377
H    5.922980   46.231327   44.249233
H   79.384659   91.204773   44.795574
H   37.613205   55.997784   13.419396
H   23.686222   71.749168   38.986946
H   43.156582   17.716257   41.067398
H   77.166306   33.512012   92.911903
H   93.743286   65.552879   53.004166
H   81.318031   34.406506   61.058907
H   67.449097   17.129099   12.016271
H   81.752716   72.382034   33.773735
H   26.833952   33.133404   60.337627
H   48.158817   98.686295    5.978860
H   24.624166   79.039368   79.496674
H   83.505753   79.698647   95.592163
H    7.215729   76.020721   73.769165
H    5.855711   16.181618   51.252903
H   65.780807   55.115627    7.992706
H   31.325211   71.599136    3.522751
H   46.549438   96.825844   69.748650
H   50.902081   18.283436   46.589802
H   87.259575   16.071913   47.924286
H   67.342400   22.119827   89.911758
H   20.515909   64.939758    0.340787
H   68.953178   73.857803   11.836650
H   44.584454   10.772487   30.185043
H   91.740822   26.304899   82.756721
H   98.175819   91.111168   84.321609
H   11.222663    3.839726   63.865723
H   46.094666   39.033012   50.990551
H   58.530529   74.015053   69.295792
H   36.327820   27.738323   45.807823
H   72.764786   23.087154    4.484829
H    3.011164   12.239755   56.235245
H   77.330734   98.459435   74.618690
H   49.547607   24.337051   63.851124
H   96.057358   24.403280   74.253166
H   32.074020    3.256719   53.062584
H   10.397758   23.054916   38.238529
H   70.521233   91.497932    1.327881
H   37.044193   32.620232    3.345298
H   20.084913   71.269638   92.463463
H   11.581034   12.031896   94.639267
H   29.532948   56.987358   88.995209
H   44.214138   97.748276   62.004765
H   20.469370   90.987595   30.884525
H   29.177206    2.473626    1.429739
H   76.570580   24.089840    5.822262
H   61.130222   71.680077   76.624084
H   24.190426   79.368576   56.504742
H   47.488617   33.606529   81.417229
H   85.093307   87.228165   95.116653
H   40.181534   18.542543   99.973427
H   66.709518   99.786743   65.013397
H   21.349371   58.941711   61.734100
H   75.442513   24.377964   36.067207
H   77.284401   19.432764   91.912102
H   10.990795   26.123373   47.182827
H   40.394142   71.270622   52.353214
H   64.613708   95.506042   27.214029
H    3.218455   76.306702   61.923420
H   85.031639   74.402336   66.686493
H   20.090765   42.615128   28.420546
H   14.716179   67.664383   84.245430
H   25.536255   29.430836   20.256790
H   81.524353   34.067963   50.866619
H   58.600040   28.246672   56.952667
H   65.628792   28.553532   24.503090
H   69.009949   41.970455   91.927681
H   99.580399   30.137854    4.808020
H   45.234165   97.361572    0.691018
H   80.011086   59.597904   88.813950
H   59.681919   78.545616   97.176331
H   63.728905   22.609602   78.796295
H   68.822533   75.764023   31.997015
H   20.119175   10.156294   72.212608
H   38.701046    6.344585   82.443100
H   41.527073   19.662544   36.956871
H   13.203736   52.119518   90.903717
H   66.850510   43.701046   43.784473
H   38.999458   20.769299   92.402298
H   24.718155   31.009731   43.805309
H   28.644171   28.106686   19.609066
H    6.272575   72.681015   24.390036
H   81.374458   12.640334   97.741173
H   42.263531   58.275368   28.408291
H   99.090263   48.494217   76.809143
H   78.687820   86.401360   33.744160
H   90.634094   57.877121   88.285828
H   60.523232   24.855570   63.963181
H   42.594254   90.505829   97.717232
H   87.419144   84.573563    5.813243
H   92.924294   75.345490   96.266792
H    8.226809    9.182666   47.872898
H   97.065392    4.064248   63.263710
H   66.326576    1.818078   85.876724
H   68.646034   86.184837   47.921173
H   89.947426   68.872627   85.552643
H   42.418625   42.249916   71.585327
H   43.367233   16.236158   99.597641
H   43.241093   67.450829   10.096960
H   64.097626   36.483601   42.773460
H   59.795322   54.018509    4.409846
H   64.540581   31.921431   75.655342
H   33.298237   74.708656   44.196308
H   40.480747   59.408314   36.982304
H   41.207237   97.430305   48.348763
H   46.720978   78.965042   69.679832
H   61.202000   71.012741   99.425682
H    4.690278   87.013252   95.566910
H   81.472145   58.779476   52.469040
H   27.515388   11.232502   52.821651
H   69.253899   37.409946    8.695431
H    5.971092   97.722328   79.634552
H    7.704121   49.944077   58.057339
H   59.078888   43.159451   49.476894
H   57.751598   56.415474   78.991501
H   43.927677   39.050545    6.233330
H   19.201269    2.295759    8.130445
H   65.349716   63.023315   72.523071
H   52.492344   90.462738   87.377563
H   50.599850   23.828459   36.834789
H   58.805645   41.066074   37.294006
H    5.805490   15.802484   77.573853
H   60.380844   17.032534    8.360515
H    9.346562   69.179619   63.116325
H   77.465546   99.976936   50.642143
H   23.502052   24.153378   41.851368
H   92.048355   28.654762   37.208767
H   19.673306   11.584131   92.081238
H   82.211487    3.861864   35.988579
H   51.310280   70.980957   57.000561
H   34.794048   83.856583   94.616470
H   73.056816   78.116043   70.792709
H   78.363129   96.157410    6.236946
H   96.306877   46.856010   23.143795
H   36.948418   48.266605   80.675003
H    0.409451    9.058762   62.974957
H   79.412056   24.843332   70.877525
H   93.388351   52.856789   84.283096
H   84.138130   79.849960   45.183636
H   16.222305   29.924160   64.176674
H   72.494476   90.320358    3.121020
H   48.236549   24.944386   71.708733
H   83.596123   94.796974   79.010696
H   96.141106   34.966492   83.208473
H   26.164047    7.076851   95.963943
H   97.579353   60.913429   20.312990
H   10.933310   60.508957   64.840515
H   46.904057   59.083836   63.820515
H   40.702324   35.953991   80.365486
H   48.874386   80.879990   26.522242
H    0.790836   13.979260   54.393032
H   37.706791   57.584019   30.310318
H   90.007843   60.910614   22.303679
H   74.964371   10.017829   31.607744
H    8.470860   81.496559   98.437637
H   33.239849    0.367436   51.168819
H   13.900259   11.194981   84.680870
H    9.561856   40.040611   99.818871
