100
TIME:    0.182, STEP:   182
H    5.014844    5.331035   98.979385
H   96.207527   14.612495   89.481049
H   82.891449   86.997856   21.202888
H   81.507156   25.152189   30.186872
H   93.540894   87.345627   60.770439
H   25.194107    1.015567   96.769188
H   43.431515   73.627922    4.685176
H    5.581457    4.347985   91.483131
H   49.154091   68.794815   88.630775
H   69.866829   19.000061   14.815882
H   83.325836   73.565720   22.218643
H   48.895229   32.813240   79.974297
H   31.685719   50.696182    7.039981
H   46.070423    4.516119   71.091164
H   82.716499   53.764839   42.024136
H   94.205719   95.817879   17.932026
H    9.433744   94.033058   89.925621
H    5.033959   85.849884   93.236618
H   48.098328   85.988251   72.950104
H   87.722816    1.716074   28.604425
H   53.476410   38.098961   52.301819
H   79.799110   44.340157    3.758118
H   83.314064   93.142021   27.143562
H    2.131749   38.864567   93.557541
H   23.073656   71.739815   37.902298
H   45.822041   22.188889   72.112724
H   46.384998   34.911366    3.577855
H   17.184319   64.934326   72.791702
H   15.128692   65.604424   48.568695
H    7.972644   86.335190   97.857536
H   23.261110   38.363197   95.010063
H   77.248993   47.481972   82.415443
H   83.177917   55.166084   14.192952
H   85.791939   57.043457   64.083916
H   76.247932   45.162430   35.810814
H   88.379082   98.782585   20.018095
H   97.255486   97.869972   22.806042
H   56.466278   55.623119   35.284451
H   42.538670   76.622826   24.682693
H   46.050808   95.144661   52.354088
H   22.804203   62.423450   46.626743
H   15.264053   20.025064   11.350825
H   12.809215   64.591339   14.619486
H   67.737564   15.821866   98.526871
H   40.868233   24.711063   71.681702
H   75.627007   66.625542   84.032005
H   38.001820   35.558796   29.178411
H   56.249134   97.256180   79.839081
H   70.347771   17.376324   37.213989
H   29.706907   33.519550   70.934708
H   43.528881   52.073326   55.339016
H   13.977967   46.850975   62.115334
H   12.654591   23.064026   92.299599
H   72.471039    4.232646   39.847004
H   26.270393   74.460480    1.950522
H   93.793961   12.340900   86.431091
H    7.790579   84.295296   73.297127
H   12.507439   59.698967    8.866953
H    4.631759   46.458893   97.510910
H   47.009613   41.777321   58.429924
H   71.181351   70.105698    0.206371
H   92.451599   26.251328   87.119690
H   86.577980   94.742104   21.072235
H   55.537766   42.784515   22.199209
H   39.545799   46.308475   12.510137
H   90.164925   33.225391   56.947124
H   72.966331   54.653278   75.849106
H   67.793770   27.946369   74.903252
H   65.974876   36.708961   48.818539
H   34.073586   57.298935    1.348047
H   16.253233   83.021080   59.964603
H   58.959415   45.485329   69.947762
H   95.124588    9.305027   57.082829
H   26.184998   37.862408   92.391808
H   70.945480   28.902662   15.194657
H   29.960752   19.236670   83.683121
H   83.479614   10.769569   94.252869
H   40.531021   38.819996   24.491047
H   70.277763   52.967525   19.717819
H   90.599838   99.041664    5.241748
H   14.443523   31.164225   90.866608
H   54.979435   45.416153   71.561951
H   29.311817   10.295142   47.234406
H   62.690987   27.735569   46.806496
H   43.468399   37.500168   30.109383
H   47.107273   15.736537   54.422726
H   79.310081   90.120033   32.221645
H   58.885010   90.722786   93.846596
H   59.460152   84.038963   26.711884
H   50.244057    1.798588   30.717951
H   31.470766   83.258667   37.305248
H   91.752785    9.194601   36.992409
H   96.961922   33.084763   32.995110
H   64.819740   24.271849   39.089970
H   53.445194   33.427273   20.269215
H    8.954086   88.544548   58.048409
H   48.155846   78.125053   26.721962
H    7.533525   17.787292   53.123276
H    0.042164   37.634823   29.806583
H   50.544323   74.028465   80.156723
