100
TIME:    8.110, STEP:  8110
H   68.875969   78.295555   91.721085
H   76.498306   44.333736   89.466629
H   19.174395   57.369675   28.140709
H   82.837845   98.517448   95.625435
H   22.526484   22.809513   45.809265
H    2.251595   92.421928   81.906807
H   27.925472    8.963016   24.665730
H   82.456284   90.220238   63.561569
H   54.268593    6.549287   89.591476
H   53.246986   32.832584   25.259361
H   45.882584   92.566208   58.552498
H   46.306259   30.202801   15.650452
H   26.602058   71.097610   19.157820
H   53.522301   80.078590   74.415276
H   79.110054   45.607651   60.889687
H   75.437500    2.398628   59.840118
H   71.949043   18.384830   11.673650
H   74.493118    0.206559   18.393833
H   71.578644   18.576977   90.628693
H   74.017197   33.589092   68.499123
H   83.017830   48.841732   37.124493
H   39.893940   54.850128   28.636841
H   77.462013   28.665682    0.312721
H   65.522949   33.847382    4.754205
H   39.523506   42.997139   96.434120
H    9.368069   87.020676   27.694992
H   62.745628    5.352902   60.886303
H   48.243057   34.987080   34.845528
H   87.514732   84.894821   73.808189
H   11.966963   90.116684   28.109959
H   35.234730   49.294655   67.741692
H   77.827690   28.441219   48.480736
H   41.614536   75.116310   28.409803
H   20.768745   30.489510   30.089102
H   79.120125   45.629204   18.470457
H   77.626266   20.639181   93.929634
H   57.652813    7.528822   47.501553
H   28.791580   10.533556   94.742195
H    2.744853    4.715219   58.392998
H   99.322464   52.952835   76.113159
H   80.990738   34.456001   33.412563
H   16.747459   73.406525   93.990623
H   81.081879   12.137310   87.267250
H   61.491795   48.768875   73.687531
H   53.172699   11.914600   50.104897
H   73.438805   17.599510   16.109053
H    5.097145   65.887520    3.312976
H   56.682613   78.900360   70.378395
H    2.096075   60.778870   20.962261
H   96.011475   54.172825   16.480896
H   42.944721   86.675087   38.918610
H   99.274063   11.190680   41.665985
H   77.096016   69.033264   31.856047
H   88.883789   74.884354   89.688858
H   95.064217   69.327332   69.326477
H    3.696754    4.002790   16.543259
H   10.391524   55.535866   27.316048
H   22.168398   10.997694    4.659251
H   29.892769   81.445030   88.881500
H   23.842834   51.150501   32.942894
H   71.285568    1.419869   82.076393
H   11.078194   52.455338   28.402168
H   24.648060   53.871368   77.343414
H   99.938408   85.941650    6.950935
H   54.224152   13.111732   50.818130
H    3.138810   39.101128   25.710850
H   36.888428   28.746677   58.613140
H   20.152763   81.356621   53.907501
H   61.105148   67.053459   51.588638
H   94.734627   55.987194   84.642426
H   64.503471   43.597610   64.867989
H    5.429086   82.315819   50.505238
H   78.203781   17.158617   53.811352
H   51.673611   36.138004   21.284746
H   53.137726   40.256748   16.207144
H   17.381037   27.347347   50.228622
H    3.343570   23.859200   34.573303
H   13.001451   20.430325   62.326221
H   50.416016   29.697094    8.163885
H    1.803824   67.229301   22.237343
H   69.581825   13.184030   64.706543
H   49.863724   97.065109    8.521912
H   30.849672   42.746006    2.297753
H    8.104871    6.149189   22.694332
H   57.440781   41.591076   61.579460
H   64.643356    6.946860    4.966159
H    8.803422   13.689354   10.259438
H   86.460136   56.104652   11.489899
H   23.990475   42.620018   61.861458
H   49.306286   75.609634   14.130571
H   55.917316   11.348632    4.730343
H   78.356773    5.429211   88.055290
H    5.320198   70.859795   46.163330
H   31.066271    5.197177   73.643639
H   16.374184   23.285027    2.446418
H   63.774338   75.477112   48.556953
H   18.868757   33.094810   70.775108
H   22.623140   87.742424   16.072710
H   22.371147   71.823143   65.740913
H   42.954014   70.515732   16.477680
