100
TIME:    2.275, STEP:  2275
H   63.473297   13.392159   97.063187
H   37.987022   28.091234   21.506216
H   18.860014   37.576172   96.630699
H   81.858459   38.920921   15.462265
H   74.794083   55.108799    4.020802
H   92.739876   98.743416    4.046238
H   33.737980   14.955832   68.360817
H   41.075783   85.418365   99.310356
H   97.704094   67.561401   56.884945
H   12.670996   49.048988   96.774895
H   88.640076   57.782047   20.610300
H   69.011948   37.724518   30.991533
H   98.550240   24.066902   99.012901
H   42.436623   98.063667   30.368633
H    8.172085   66.815063   41.415375
H   10.051414   12.749387   44.197037
H   41.160843   32.446388   80.486496
H   49.760384   84.067284   20.675312
H   80.697853   73.793549   83.218185
H   31.226097   57.500004   71.225227
H   29.274902   29.733944   95.496750
H   80.486816   47.104080   25.540985
H   55.369499   76.119789   67.259796
H    7.669407   63.966770   38.112984
H   48.216423    5.746368   53.347191
H   36.227505   59.818943   75.935692
H   65.904045   47.908924   45.111248
H   40.583954   62.629025   41.971439
H   60.638489   55.497658   49.631401
H   88.227440   34.533951   64.244530
H    5.594456   26.057222   29.391304
H    9.402061   89.656990   88.655937
H   30.605190    2.032927    2.746922
H   74.225227   65.232590   75.909149
H   24.221943   86.947479   63.258522
H   70.356857   63.198643   12.819264
H   98.001465   21.220900   87.726501
H   69.959602   17.315113   82.981743
H   49.045601   31.846891   23.847635
H   48.913479   99.204857   17.026052
H   79.769661   34.244350   95.942551
H   27.157166   13.960162    9.683046
H   30.836744   77.142441   65.797844
H   34.084496   50.900589    3.171798
H   59.315273   42.130253   50.789162
H   48.736927    6.308918   92.407661
H   59.503719   48.560272   47.294540
H   56.360912   18.806601    9.341988
H   31.530371   44.033421   53.724854
H   73.600334   65.375664   24.548336
H   43.371052   50.007149   77.404083
H   15.693544   52.636654   24.712185
H   56.072151   35.199951   70.742393
H   24.009968   70.090874   32.205048
H   59.648552   57.944492   19.710340
H   96.412766   10.141033   15.180435
H   40.476429   23.903099   72.358849
H   56.655609   62.041962   54.957230
H   69.700371   34.893673   36.830170
H    8.893024    2.651061   98.904182
H    3.209011   72.772652   37.018658
H   18.168449    6.768082   92.417252
H   28.544235   52.015556   77.484299
H   99.259033   54.169930   65.377678
H   22.620029   79.144012    7.427136
H   61.588387   29.175941   80.701103
H    5.040663   27.016001   76.899063
H   23.216133   47.647217   74.960754
H   70.289268   86.319344   17.547791
H   76.474182   62.570656   96.942627
H   49.791344   40.609001   34.860996
H   86.382935   76.022202   23.186152
H   58.657516    5.776844    3.413307
H   80.124596    5.412395   67.998543
H   71.857201   31.880754   73.858261
H   79.441597   53.379707   42.850719
H   73.510864   29.364725   31.284441
H   38.863964    1.963456   40.080189
H   70.605728   46.836338   43.060738
H   87.954994   85.053024   24.927803
H   55.402119   52.817577   15.960344
H   12.018526   59.085037   96.542946
H   61.742268   45.229523   46.582340
H    6.668922    6.836276   55.633728
H   41.556290    6.580793   27.216599
H   98.929077   92.618828   99.766014
H   19.096838   37.941895   32.024185
H   92.578171   23.152359   72.088417
H    2.894392   67.503822    9.587353
H   65.198898   15.674736    5.544583
H   17.125031   96.275543   81.505569
H   46.616253   66.604790   76.870461
H   31.251804   95.800461   94.915085
H   67.116035   51.229053   80.209648
H   17.257721   45.949478   68.363853
H   81.827240    5.894545   49.942307
H   82.023727   98.238274    6.352017
H   15.218160   35.607941   19.634754
H    0.337870   46.656925   54.483643
H   80.526505   20.267845   78.570587
