200
TIME:    0.718, STEP:   718
H   24.159048   60.888615   23.513081
H   32.224670   39.856415    9.302377
H    8.119241   90.060135   68.892265
H   33.955093   82.560738   32.000114
H   10.135095   95.844086   46.786011
H   74.068420   39.841324   51.401276
H   10.284591   54.964973   58.903423
H   13.600339    9.526740    8.105571
H    6.840260   80.340164   36.058613
H   94.034714   68.203270   77.218239
H   28.854418    4.805117    8.066917
H   32.754395   54.781349   35.517975
H   22.906094    2.871970   41.700798
H   81.811089   55.223644   65.299309
H   96.544083   75.624260   41.802483
H   15.367617    6.271549   44.011536
H    6.693368   30.105602   92.224098
H   25.211903    6.146205   35.010441
H   80.929337   12.396793   49.520432
H   91.576988   73.140343   18.941074
H   63.821571    0.619580    3.941387
H   79.387520   67.085091   52.154449
H   80.691322   59.066010   37.666862
H   18.732800   92.417168   90.087227
H   24.022797   31.928419   28.354031
H   18.265409   83.549866   91.169334
H    8.152509   68.387978   68.300766
H    5.480496   89.847954    1.989030
H   31.201031   42.000679   35.539406
H   71.449127   33.569462   82.091080
H   12.737425   71.419411   16.779221
H   23.233784   74.709457    5.371787
H   15.573723   19.270880   79.017761
H   80.606514   64.099419   46.645233
H   25.049471   70.049667   30.582823
H   17.447266   39.023338   84.957695
H   99.983917   64.112061   89.543434
H    9.271297   57.119961   93.675888
H   35.379379   29.284267   55.056732
H   85.498657   37.722836   45.024506
H   80.646538   82.894318   17.390228
H   37.131363   33.083519   25.657246
H   68.095291   76.801262   68.077507
H   36.216385   86.449745   35.843655
H   45.109245   90.878906   61.613518
H   34.333176    1.398613   47.886463
H   88.981873    2.793724    6.659035
H   78.478722   65.543312   30.463699
H    5.566322   10.612864   61.510960
H   45.011845   19.958616   85.490311
H   66.837357   64.445992    8.925338
H    2.865900   43.925274   73.818550
H   65.069054   80.751900   14.175156
H   15.292454   92.270889   88.781700
H   56.966171   65.754364   75.314354
H   99.178154   60.573845   94.300507
H    4.066334   18.554298   44.527119
H   72.630966   69.691345   96.675682
H   18.094885   83.711288   18.687351
H   32.047863   93.305092   58.157913
H   48.871429    6.050497   28.270645
H   98.527519   17.557230   52.730614
H   84.616089   35.108292   68.758545
H   35.707817   65.834297   14.339920
H   79.032288   83.205017   37.476063
H   19.988832   35.131645   41.455276
H   68.320168   13.079225   95.710793
H   94.664635   92.536690   96.735130
H   33.524933   12.312732   55.929680
H   42.485416   49.961216   50.957066
H   58.255470   84.859543   86.067200
H   18.706413   11.257693   41.418842
H   92.664688   33.926861   83.489731
H   23.438089   98.457954   74.488564
H   84.965408    8.609286   45.137177
H   65.395775    2.201096   59.753944
H   93.407227   47.745003   65.384315
H    8.850878   14.674059   31.622353
H   15.164762   50.989288   24.350822
H   61.072819   88.001099   71.592804
H   63.655529   22.023363   94.037109
H   47.654850   59.993771   73.080193
H    9.134805   18.909559   76.294044
H    9.086515   77.489998    9.430507
H   21.886543    4.378500   44.235970
H   38.133705   69.049866   17.832390
H   57.278641    3.780155    2.867190
H   71.356422    0.753721   29.471306
H   80.316544   73.220642   78.892212
H   21.049973    7.472878   49.606747
H   21.205692   39.019207   78.628372
H   80.725853   92.729340    8.797672
H   69.967285   11.471142   82.116135
H   38.593502   77.260628   82.229683
H   37.236610   50.460335   87.847939
H   49.476967   38.396393    6.587204
H   85.789696   97.745842   18.915413
H   93.754616   35.865959   53.119312
H   26.186760   64.989716   54.575211
H   75.515602    5.694330   27.367105
H   31.192900   93.642578   91.448158
H    8.346419   83.888275   63.227928
H   33.087891   19.700895   37.182255
H   44.844170   68.822021    9.144683
H   24.705099   21.191032   40.584827
H    6.346986    3.370131   21.511442
H   88.301598   36.032032   54.034653
H   61.934490   52.627151    0.258143
H   84.944221   34.055939   22.246326
H   19.721796   21.395769    7.876719
H   53.483536   91.913017    1.132159
H    5.186986   75.365417   95.955910
H   48.791985   85.821518   83.538200
H   61.604973    9.092258   62.627831
H   47.898933    1.873026   10.012483
H   94.531181   91.814552    0.498229
H   12.921990   15.173429   89.752487
H   38.345959   50.524136   24.423759
H   37.015198   75.659760   59.915676
H   83.397087   56.215023   67.174362
H   45.543465   24.935841   71.856606
H   97.664627   16.156559   62.248596
H   43.760445    1.662465   38.209415
H   97.034927   50.118103   96.932793
H   62.613426   97.117256   77.004036
H   65.234520   75.430267   16.302118
H   83.505196   51.421799   52.594406
H   64.973152   91.318932   39.039639
H   98.350090   35.181187   73.997124
H   90.913635   21.883739   74.645027
H   67.904442   68.118439   21.678417
H   63.352699   90.792282   20.599400
H   90.876900    5.850470    0.931138
H   77.482254   25.258381   55.590054
H   28.039631   92.727112   34.451904
H   49.626923    1.013382   76.639534
H   69.684082   87.782570   79.134361
H   95.295525   49.296215   75.645744
H   58.807343   51.018311   71.437035
H   43.706871   86.165276   82.175659
H   74.282074   49.011879   30.350677
H   35.233200   55.534409   57.389843
H   39.639496   65.558693   83.261520
H   35.810097    9.224886   86.045387
H   62.770184   53.914215   64.698944
H   63.454132   70.210770    6.953053
H   56.036491   94.684502   43.859325
H   29.600365   55.625710   66.082542
H   77.963837   44.834961   93.192612
H   24.699238   93.893440   72.109131
H   59.372276   69.427841   47.735638
H   53.908867   93.883156   33.172890
H   98.381424   13.965374   86.685089
H   22.545536   12.114609   64.140373
H   32.567043   66.502975   69.400581
H   77.691994   44.714130   68.767471
H   64.314743   75.218964   86.415695
H   52.841972   28.990570   20.922699
H   90.504524   99.933243   84.877769
H   58.320629   37.440460   96.584732
H   58.651268   64.989906   70.706612
H   21.160948   20.579178   31.402977
H   85.794884   13.729218   37.033298
H   28.820467   34.221859   50.748436
H   54.377388   38.307732   14.521233
H   20.149197   49.230106   59.688854
H   66.668892   89.835640   57.288998
H   24.049778   52.680557   67.778641
H    0.568116   26.615740   35.728233
H   48.286591    6.852523   85.020599
H   70.233276   11.318347   35.935959
H   29.649870   47.692566   58.925972
H   46.908592   56.914547   76.974442
H   65.339920   63.104919   85.329346
H   49.221252   91.440750   76.755882
H   15.665184   50.242954   23.746157
H   30.507259   67.853653    6.903038
H    5.966442    9.656715   70.992325
H   63.377232   10.267375   63.544369
H   63.562454   59.582573   93.128029
H   72.690903    2.318811   30.605637
H   28.869028   30.689541   87.066345
H   43.626041   89.663040   15.536987
H   61.890572   26.104847   94.775398
H   91.704376   67.602036   76.427536
H    9.267145   40.257187   86.346535
H   47.996216   96.337059    9.856493
H   67.456833   87.471870   42.252472
H   92.775368   63.304989   72.006393
H   58.305840   55.673107   71.742203
H   70.654495   15.209778   75.888008
H   43.734375   97.919281   18.535971
H   14.717904   28.895817   68.756676
H   26.752851   82.607803   42.946438
H   68.491074   32.904850   20.252697
H   76.495132   11.556364   23.017540
H   12.638598   98.593254   19.600447
H   15.017693   87.906136   33.486130
H    5.539071   12.949377   56.639229
H    3.022241   18.798157   91.107880
