100
TIME:    8.991, STEP:  8991
H    9.297715   97.504250   90.914505
H   52.166489   92.072571   45.016674
H   34.317928   20.752312   17.799686
H   82.985718   62.221367   47.335884
H   14.632086   93.425552   21.922485
H   88.592651   91.467476   69.155548
H   81.751259   68.454475   93.561073
H   13.211426   66.436661   82.670128
H   32.611931   21.844398   34.135509
H   29.183634   45.482441   59.754738
H   63.934113   28.013638   73.690193
H   12.678612   74.363029   52.939629
H   70.423401   17.775085   31.606873
H    9.901256   77.363106   41.459614
H   89.810677   66.912392   18.524094
H   40.015213   25.343346   86.709045
H    1.104180   76.654945   91.874550
H   93.331345   57.336861   87.854080
H   85.303940   55.538486   37.042095
H   50.280758   14.880091   28.481653
H   30.738029   61.135735   13.213488
H   24.356272   56.019669   53.611572
H   65.699394   21.503927   75.107086
H   83.664597   44.386688   39.324306
H    8.015264   73.129761    2.939136
H    5.212954   61.048813   44.789104
H   86.775124   68.733536   78.363388
H   73.906586   76.109192   63.969772
H    6.671371   64.825829   32.161797
H   45.747414   68.312149   98.147766
H   69.909782   28.296402   98.039795
H   33.454426    4.101993   66.922173
H    3.670111   10.658272    7.777241
H   57.993408   49.751160   92.975578
H   57.194603   78.925148   72.073380
H   54.209599   89.645737   91.160378
H   42.152802   75.264900   16.920797
H   92.377876   94.412010   56.909996
H   65.561119   85.519432   73.017792
H   16.342093   70.476738   45.428085
H   20.780199   64.682724   54.168545
H   42.501450   76.861374   38.967327
H   88.663727   17.422539   50.901432
H    5.239631   63.562889   59.825588
H   76.752640   77.162300   25.495840
H   62.067177   34.400372   19.688250
H   11.984885   13.799345   11.773470
H   56.736385   87.974380   24.889271
H   27.846321   87.815834   85.819550
H   14.505074   67.584007   54.882877
H   42.884228    1.620069   48.207718
H   42.092037   29.440578   83.832741
H   95.365044   74.141602   80.689926
H   68.477325   60.512161   28.563538
H   24.918339   46.533440   76.814224
H    4.794039    3.076064   86.551926
H   66.240875   30.115166   11.106429
H   56.567322   27.798468   81.967064
H   99.379494   18.670538   21.246088
H   65.704185   18.865925    7.885155
H   26.860048   60.446384   13.387589
H   79.809746   44.255112   88.540657
H   84.459946   93.752953   16.930603
H   60.436924   90.740799   83.034149
H   89.191254   42.747906   32.861774
H   49.017494   95.304466   77.802452
H   66.203720   59.202137    1.146850
H   59.295898   31.742973   96.024399
H    5.011045    3.750406   96.332123
H   12.627532    0.240287   82.773849
H   36.521999   83.651848   54.301796
H   32.880493   53.063866   15.082879
H   20.761871   73.577904   31.220402
H   32.282093   80.379005   68.938972
H   95.577255   41.553997   83.005371
H   38.210953   83.812004   90.949265
H   83.357254   47.607075   50.200783
H   54.387127   62.827095   10.988242
H   92.665184   27.109318   17.996096
H   58.598137   19.236921   46.338493
H   86.829185   22.298380   17.363228
H   15.973816    2.781240   34.817108
H   86.574806   57.479527   86.200356
H   68.714455   81.538429   42.228039
H   14.544189   86.479416   76.177078
H   44.364811   39.308266   66.145523
H   67.643410   49.633217   52.268791
H    0.629003   85.606056    2.355271
H   42.274418   93.568214   54.656013
H   71.414383   39.362755   45.622589
H   91.971428   58.916828   23.335594
H   43.541851   71.688614    4.843799
H   61.793934   97.288719   14.292415
H   16.210909   58.646473   33.046841
H    1.140278   44.371082   22.689329
H   36.541351   40.686646    3.051943
H   48.938835   83.653908   20.107677
H   20.922602   31.335510   98.384789
H   80.402611   75.627510   91.946510
H   97.677856   47.909405   31.608486
