200
TIME:    0.971, STEP:   971
H   31.933077   60.048962   27.839224
H   34.479187   43.549923   19.573492
H    2.816521    1.133871   81.353874
H   42.482880   85.517860   25.384228
H    7.448904    2.256384   43.148479
H   65.837891   32.974506   43.912922
H   13.950110   54.785461   63.800434
H   19.269928   20.450916   99.125366
H   17.114414   76.547249   29.886515
H   85.128601   64.657684   67.238914
H   37.672707   10.209538   16.061958
H   33.800583   61.534283   47.573269
H   29.115665   11.269392   31.331566
H   69.853271   56.291065   77.490685
H   84.329544   77.571869   41.179981
H    7.993388   95.847702   38.553791
H   18.606489   41.952255   79.953217
H   19.204523   18.309305   30.506393
H   89.347099    3.237521   53.244823
H   92.381897   69.665916    9.133371
H   66.857834   13.248705   92.350380
H   73.755089   76.755577   42.404823
H   73.115143   57.226494   31.596300
H   24.091619   94.723801   89.293900
H   35.019356   42.103664   19.326313
H   18.055979   94.778053   82.813339
H   13.052174   73.464500   78.473114
H   11.287131    0.284760    2.654721
H   41.856903   34.310616   34.057949
H   60.015995   40.347488   73.339386
H   12.407113   81.989388   17.088541
H   18.633064   80.639145   11.600953
H    9.460663   24.714630   82.108070
H   72.233147   64.375443   51.067406
H   12.907861   59.595913   28.657894
H    9.170569   33.257050   87.844810
H    7.245202   58.651421   91.442787
H   96.757103   63.664429   82.301003
H   26.015800   20.225183   60.680477
H   83.072350   36.682438   35.141693
H   80.721817   71.075478   25.787724
H   49.724228   27.777878   18.154898
H   63.540031   70.989319   77.471970
H   35.652756   98.737633   44.891640
H   53.753811   98.597923   70.743538
H   30.772686   94.814514   50.638016
H   93.749557   90.397934   12.205600
H   72.319336   65.539452   21.368423
H   15.350722    1.012088   61.693367
H   35.958069   21.100351   74.787148
H   60.818878   61.243729   98.898949
H   93.195198   48.279888   79.257957
H   71.894371   73.517967   17.478712
H   11.526803   97.609924   92.528290
H   46.257217   60.127724   67.132080
H   95.935356   54.340145    2.585323
H    3.344359   19.511696   41.813206
H   75.395065   75.572777   92.108742
H   12.756332   88.598648   24.806202
H   26.196350   91.884438   53.480949
H   48.052044    1.114434   20.878321
H    3.074549   18.156569   54.670502
H   91.586174   40.348885   60.222610
H   41.838249   66.195251   19.988758
H   83.099297   86.976700   47.822132
H   10.064182   44.960411   46.002914
H   58.869728    7.742361    0.937856
H   93.247841   93.111900    1.744249
H   42.523697   15.731664   52.727417
H   41.029053   54.370842   50.943554
H   58.144482   89.235390   92.834610
H   11.595903    4.607724   39.647850
H    0.694536   38.300777   75.017921
H   31.680683   92.896942   81.854347
H   88.046066   12.704766   33.241127
H   71.790649   93.269684   58.100697
H   92.337875   57.163593   61.805061
H   99.480186   19.281052   22.971031
H   17.093521   62.254204   18.730465
H   57.259636   86.590096   59.594452
H   74.393433   17.747406   90.280869
H   58.779770   55.443237   65.258873
H    8.147730   21.684757   68.891586
H    0.836305   85.762993   17.676188
H   12.877163    7.053929   37.066105
H   45.261105   60.197800   12.565896
H   68.617424    4.307351    3.447227
H   69.252464   91.337967   39.013561
H   88.060654   73.836388   79.803284
H   19.782772   18.813683   46.823345
H   10.600366   41.203270   77.503044
H   78.963547   94.949112   14.318150
H   81.986870    8.617769   74.910561
H   27.248333   68.171143   89.176605
H   43.646927   47.038025   98.385101
H   38.999641   44.052952   94.691498
H   89.221657   88.994148   29.811600
H   99.602631   42.005016   58.173222
H   20.453957   62.455315   55.471806
H   79.914612    9.805078   27.428873
H   42.480923    0.637813    3.361766
H   17.753716   87.715935   61.832367
H   38.332344   10.454723   40.717484
H   57.000801   69.289139   19.192049
H   24.369720   17.866199   48.787369
H   16.363487   90.983665    9.666191
H   87.483688   36.965389   50.198715
H   60.443382   62.341068   90.475685
H   91.373840   30.862362   34.480167
H   27.849058   17.868261    9.114965
H   56.812229   89.714478    1.310163
H   15.345099   81.727478   98.837753
H   44.397800   88.757408   78.035095
H   60.747948    3.637989   56.104595
H   39.456078   12.408005    1.141358
H   84.206345   84.414024   11.912024
H    2.519712   18.736107   92.701889
H   37.062351   62.977058   19.366539
H   46.622952   85.158455   47.412567
H   90.073776   61.264523   76.613220
H   48.184029   26.617077   63.566292
H   86.749138   10.163174   69.689888
H   49.859993   90.992081   45.715141
H   93.307640   41.014141   85.853233
H   55.043037   90.853638   68.636459
H   74.502251   82.353462   11.417734
H   77.216484   52.603104   42.823547
H   59.439163   93.303215   41.176411
H    1.463614   26.023178   68.231506
H    3.176415   20.684580   78.955246
H   78.117325   59.084930   31.346973
H   53.641678   93.301590   26.565762
H   90.050758   18.159107    2.813739
H   65.076622   31.744942   58.703526
H   40.537914   88.152451   22.826088
H   42.888466    0.688680   72.912247
H   70.102943   88.427269   91.729156
H   97.453529   41.396721   71.648224
H   65.420334   54.556435   71.377197
H   43.843918   74.031807   75.145737
H   86.807381   41.571781   38.523300
H   23.586500   63.221577   63.287682
H   31.506413   70.214424   74.727943
H   24.217094    0.066656   90.237862
H   74.662376   45.523476   72.971939
H   72.725006   74.569244   94.835518
H   62.020226   93.576546   42.047798
H   22.692047   46.208084   64.631004
H   84.727386   34.271740   90.677513
H   32.764206   96.655609   62.641319
H   50.455547   73.724548   45.825668
H   64.558899   86.882187   25.244442
H   10.134782    4.505283   77.804070
H   29.233324   17.921888   57.887390
H   42.599449   73.185455   73.977173
H   85.202545   45.341457   76.552116
H   66.963028   82.806725   89.411423
H   56.438969   24.931282   26.849974
H   78.925034   98.979706   75.494888
H   55.484146   27.117325    6.293335
H   61.136448   54.711395   63.979733
H    9.281788   19.268064   29.211193
H   96.685280    2.698455   36.928101
H   38.107002   41.654236   39.924633
H   51.954941   46.892460   17.007038
H   24.508154   41.180054   58.305840
H   62.312347   85.743538   59.971062
H   24.270790   64.191505   78.240524
H    4.006589   25.792976   35.130825
H   59.832302    4.943277   82.171570
H   65.399963   14.327104   35.914726
H   20.909275   38.295208   59.702892
H   51.796917   46.042488   69.855728
H   62.223965   57.054592   91.199196
H   37.462250   89.537537   64.859833
H   23.471092   51.616299   24.005764
H   27.908195   75.757973   17.485561
H    8.208762    9.897995   74.227402
H   56.906113    4.385702   60.586281
H   51.528393   62.296486   96.697037
H   68.071846   11.385680   24.723722
H   33.971905   30.998379   96.302528
H   31.976097   89.394737   20.549812
H   67.399834   26.572929    4.082901
H   94.976128   56.628639   75.385208
H   14.563474   42.392029   87.612770
H   56.805817   92.003677   15.462383
H   55.302132   98.188545   51.105503
H   85.448189   64.432838   74.897888
H   62.906559   54.296848   74.938675
H   82.739708    6.839327   74.081306
H   41.660336    4.794986   15.313492
H   20.337734   34.915012   74.553177
H   22.333092   92.704872   48.045158
H   59.808399   21.604723   19.425108
H   77.112808   12.177176   19.551317
H   14.320317    5.492463   28.139814
H    7.664697   82.877869   26.351009
H    2.165291   13.657291   45.324181
H    0.383430   10.226621   87.592918
