100
TIME:    5.364, STEP:  5364
H   54.576820   30.115200   94.235123
H   52.334236   95.530182   16.322487
H   71.960449   59.811523   60.381992
H   82.376938   11.653198   46.144371
H   47.126190    2.705738   20.264912
H   44.841900   95.396873    9.960827
H   71.841774   23.540264    9.924867
H   98.286469   52.655346   15.688685
H   21.770576   70.566635   62.443619
H   28.255583   93.402458   17.737364
H    1.308819   82.074844   23.062202
H   51.113472   92.560417   11.113890
H    1.779024   37.219246   92.027763
H   89.487984   88.542519   65.444023
H   45.745674   90.893631   92.929352
H   85.848572   42.574051   87.781952
H   92.766060   36.757420   61.694427
H   15.773143   33.824398   13.582056
H   28.814552    3.378015   45.957569
H   48.000130   91.903847   81.538704
H   45.969353   22.213989   11.656509
H   76.632248   51.204773   62.484131
H   14.126632   50.997154   78.879593
H   20.664707    0.997286    8.695354
H   37.735992   60.768776   76.154213
H   22.094183   68.086853   86.011353
H   99.534760   19.501358    6.395376
H   79.942726    6.813072   44.078880
H   27.806328   35.755711    3.613692
H    6.673373   58.080742    9.811443
H   27.161854    3.056313   84.996330
H    4.443537    4.312399    2.691713
H   48.190662   76.026711   81.028435
H    4.742776   82.144188   45.773827
H   47.437271   53.442856   51.357391
H   38.920628    5.559886    2.562445
H   94.276611    8.093685   31.127422
H   42.287617   60.792797    0.965070
H   18.655376   64.544548   24.500631
H   57.963833   10.023220   60.063786
H   68.660324   40.234238   68.719215
H   49.534721   52.598007   54.801319
H   57.444111   95.666260   88.921364
H   36.833889    2.677331    5.199973
H   91.368477   20.256569   15.122397
H    8.883635   65.226913    4.953009
H   83.640915   16.550446   76.955345
H   56.525883   50.617432    0.471882
H   21.825958   88.203552   30.501335
H   38.376949   12.374861    8.499809
H   43.135380   51.784073    9.972154
H   65.812813   66.001221   21.924980
H   20.136921   53.111023   91.336205
H   52.471657   19.683479   68.514977
H   13.705177   28.680002   45.971653
H    0.276556    6.891315   10.023590
H   36.305908   34.770958   66.148476
H   26.640793   70.324013   75.390732
H   13.324572   65.411339   99.685509
H    5.051056   40.083363   11.045662
H   98.065430   29.121601   96.176872
H    8.538313   78.014725   52.651588
H   38.222286   41.253708   65.644867
H   11.375411   70.983124   81.507599
H   45.229454   32.429996   95.094627
H   71.827019   75.612785   63.344872
H   57.204865   33.810345   26.036652
H    9.837651   24.310495   22.632818
H   24.242735   64.363503   23.811516
H   39.059891   17.935417   90.438080
H   51.701775   30.433990   97.801888
H   31.681107   73.504181   49.349319
H   57.248657   52.979584   24.214714
H   12.127834    9.931870   84.443199
H   20.791712   36.287502    8.025299
H   52.468666   51.355606   35.000530
H   53.971989   61.631329   85.913368
H   83.990799   99.981041   10.672481
H   18.737019   37.762966   77.530296
H   36.466057   16.815826   58.807831
H   15.836771   84.774704    0.583178
H   43.794243   79.257202   38.242508
H   57.160973   96.824402   40.784229
H   19.184942   71.168137   73.497894
H   91.146416   13.362805   27.772652
H   27.838413    6.081969   14.275802
H   25.404165   13.346436   79.319702
H   42.296867   75.841492   39.961380
H   67.001572   95.513756   84.320198
H   92.088776   88.585617   15.967987
H   43.539665   63.070538   46.739666
H   75.180580   98.903793   35.732719
H   29.296083   88.466927   33.810932
H   65.677010   38.600780   88.485481
H   63.851051   69.255974   39.344273
H   36.966019   83.913483   90.391190
H   36.832909   75.509712   28.700729
H   26.554388   61.908936   70.197334
H   53.184448   59.972393   95.745125
H   72.388733   40.984882   81.009781
