100
TIME:    9.407, STEP:  9407
H   81.165192   59.354836   90.533646
H   40.677231   14.614777   71.247490
H   41.468563   50.680916   12.916250
H   83.055542   45.082695   24.532450
H   10.904425   26.769516   10.643909
H   82.143433   91.016792   10.352252
H   59.947651   96.542854   26.092831
H   80.514648    2.427698   44.474655
H   22.385857   81.847198    7.949712
H   17.819742   51.455585   76.042824
H   25.238800   44.752029   33.617439
H   96.800591   95.215080   23.328278
H   43.896545   92.595680   90.265869
H   89.303497   76.080879   73.117638
H   94.863411   29.753212   98.519066
H   23.288311   88.958237   52.177795
H   67.652016    4.171642   29.744673
H    2.229993   37.094185   73.432205
H   91.784897   72.989731   58.957378
H   39.073971    6.045740   56.804893
H    6.051674   19.720922    1.921673
H   64.238602   56.571915   18.185303
H   60.145195   18.122213   63.205231
H   45.012157   49.363251    8.428106
H   93.136826   40.138695    6.009883
H    3.250659   48.785141    5.640980
H   50.903358   51.440212   86.615341
H   38.806328   95.526672   77.718803
H   15.717517    2.568930   12.498333
H   61.699074   58.016251   31.217636
H   86.280388   65.598694   65.127197
H   59.721027   92.607376   28.410942
H   32.973732   80.221725   45.253807
H   75.570068   11.627228   75.449699
H   46.841576   47.428078   97.381485
H   90.372192   22.229361   89.852760
H   82.052429   60.030525   49.700092
H   75.182076   86.801170   86.267143
H   48.000607   76.454979   32.703827
H   77.158691   31.531219   78.158401
H   92.350098   78.958603   63.969326
H    7.443150   78.492722   60.203411
H   92.243805   19.918755   80.949852
H   78.680458   70.545509    0.501009
H   40.668266   60.752979   61.096378
H   56.700233   42.334942   21.378313
H   15.237266   36.424290   15.768526
H   56.761776   92.259048   50.629017
H   40.005257   53.361736   69.226776
H   23.236410   73.918968   25.795082
H   43.661167   61.520073   51.357025
H   62.309322   90.839203   56.525124
H    3.992539   76.553711   56.529869
H   58.843285   53.723343   46.920662
H   91.795174   82.989548   80.349869
H    5.312166    2.638473   72.390305
H   92.615387   18.111748   50.671471
H   25.591089   88.511772   71.252220
H   32.189053   36.249168   89.309975
H   38.253551   50.842243   96.053139
H   53.104122   41.101902   80.956154
H   65.045097   40.383041   69.719856
H   12.701472   65.366234   88.404236
H   89.001770   93.006912   71.741669
H    5.702090    9.521099   71.601524
H   23.462360   74.623802    2.399684
H   32.827744   73.584869   21.232315
H   30.560059   55.534004   15.911606
H   25.745302   73.859314   70.243256
H   21.076263   21.134188   81.891525
H   23.310398   55.346676   49.312538
H   98.624107   39.251366   45.574703
H   93.637985   53.000500   20.553165
H   23.125599   54.050129   44.221199
H   15.615579   42.166546   14.546535
H   48.046646   10.472812   62.956223
H   21.139137   11.599995   57.579933
H   73.930000   35.627388   33.963585
H   12.614244   25.887394   22.639406
H   38.196770   96.574867   10.499748
H   94.973228   26.602091   42.226997
H   47.189232    5.481771    0.014697
H   12.886728   64.436562   25.818066
H   97.336037   17.136497    4.233936
H   94.288818   60.454460   35.850418
H   34.789371   54.590248   95.033707
H   95.427101   19.386635   72.105217
H    7.318956   52.318947   98.043533
H   50.907230   70.405617   51.253670
H   34.633526   22.246300   60.491974
H    8.996216   81.380463   32.120750
H   74.321640    2.976112   12.769006
H   88.460434    9.770643   46.462334
H   55.608925   83.822800   62.334042
H   93.948181    7.107176   32.247353
H   70.901215   24.259661   81.565018
H   15.919099    7.527193   96.182556
H   20.119623   51.917835   90.031273
H   60.585228   77.423897   57.103596
H   23.516769   37.235821   91.533524
