100
TIME:    8.791, STEP:  8791
H   22.822533   15.844900   91.097610
H   57.690170   81.235779   32.405285
H   30.880121    6.364035   20.147251
H   82.952148   70.461113   58.299324
H   16.424231   77.394669   27.344696
H   91.693237   91.684151   49.348511
H   92.234047   54.949425   77.920815
H   28.931030   49.134502    1.032622
H   37.528313   41.073929   46.725536
H   34.646675   42.610737   51.923927
H   82.537628   19.966915   92.955940
H   20.312584   64.338005   67.176079
H   83.176697   29.879883   51.481461
H   19.803682   77.979561   26.238972
H   87.381477   84.777382   28.141708
H   48.056595   42.836021    3.310716
H   17.187233   63.425640   73.667763
H   89.052780   67.068916   94.787674
H   82.188095   47.147678   26.505901
H   55.668636   19.127375   14.864710
H   42.606316   81.045624   18.641802
H    5.182076   55.754166   70.643433
H   68.369682   23.129751   80.829132
H    2.246857   41.994110   54.178738
H   15.168202   88.989746    1.462770
H    6.156328   66.944809   63.610821
H    4.020800   77.046524   74.396103
H   90.782806   66.773865   57.358139
H    2.322389   46.680080   41.616142
H   38.078346   73.262100   82.248108
H   62.038921   10.362104   13.863136
H   20.826252    9.627447   85.437187
H   89.582901   25.290688   89.759659
H   49.543091   68.080017    1.401375
H   62.172020   94.067970   59.905506
H   36.823734   73.981064   91.789040
H   22.970619   82.589119    1.161865
H    0.644999   98.071068   42.797142
H   74.002281   89.877342   92.399506
H   35.179703   89.199272   29.691809
H   34.448395   57.820694   49.456631
H   59.356308   76.077072   28.757427
H   86.942535   16.222435   36.455936
H   18.009670   60.204430   40.271450
H   94.101883   85.051094    8.380649
H   64.647820   30.585957   18.875719
H   10.421241    2.922108    9.852770
H   56.724178   85.914444   12.514500
H   22.000679    4.380398   93.796844
H   10.306999   64.538353   68.867027
H   42.897961   20.929302   46.098953
H   32.372189   47.999737   96.961403
H   91.217705   72.981934   92.304916
H   73.109894   63.776016   19.738617
H   40.842751   29.005800   75.114395
H    4.544939    3.286445   93.360397
H   53.562080   35.886040   92.084618
H   71.459900   46.685966   87.118431
H   83.604958   10.219457   36.600471
H   78.903038    3.492749   13.573631
H   14.243372   69.747559   28.980610
H   86.908134   46.116684   97.589119
H   70.882675    7.400630   30.645203
H   46.702488   89.651321   88.463226
H   81.253632   58.722332   14.236206
H   61.303871    5.246896   65.976891
H   82.249863   52.288380   91.491013
H   73.111206   20.304222   86.463242
H   95.043365   18.121132    8.875683
H    8.565642   90.193924   83.198044
H   42.874233   97.259636   56.700478
H   49.349304   59.704491    0.423299
H   33.802032   83.471703   36.348881
H   36.684254   93.037697   80.822517
H   85.942856   41.259502   67.841187
H   33.482254   70.994621    4.407182
H   65.193192   64.918091   46.653114
H   44.992290   75.903877   99.942261
H   83.073509   27.696781   15.763775
H   68.406487   30.132460   63.568718
H   82.913780   20.229288    5.409154
H    0.966326    1.482907   51.548370
H   73.925270   54.134800   67.154335
H   54.955078   64.424171   60.494335
H   24.282349   98.991623   95.564896
H   48.968388   31.961163   52.256973
H   54.285862   64.174843   42.732048
H   97.412498    1.609521    4.428865
H   38.124027    4.703884   56.291756
H   89.096268   47.591820   38.473846
H   83.786613   48.118183   19.111961
H   28.743876   56.646500    1.033563
H   48.973499   91.288963   98.826111
H   96.881790   46.512684   19.561827
H    4.598504   62.286427   18.094145
H   20.022186   48.584595   13.382524
H   64.814079   72.176247   31.610516
H   21.308649   21.439423    2.400442
H   89.930199   74.763863    8.698383
H   85.254150   53.040936   50.875759
