100
TIME:    1.205, STEP:  1205
H   35.832680   11.516642   98.042801
H   67.750969   70.079628   54.011257
H    0.468166   60.596493    9.191193
H   81.678864   83.003563   74.114128
H   84.377975   69.343590   33.031929
H    9.330708   99.902626   98.080406
H   89.816490   42.705502   84.685341
H   25.175674   92.850174   97.554329
H   24.006798   70.437531   24.236242
H   41.909782   33.685371   54.878281
H   88.168869   14.728061   23.678106
H    9.847462   84.091240    7.156176
H   66.610977   88.803078    5.362139
H   95.417427    1.362025   48.941830
H   95.157463   62.389057   92.848709
H   53.074051    6.337811   33.015121
H   27.186546   61.685562   83.067924
H   26.894554   36.101639   57.771286
H   64.028084   28.904505   26.846766
H   60.051247   80.224716   98.374687
H   92.770233   36.256020   24.538845
H   77.891045   45.690399   16.651218
H   69.655540   84.822029   97.872742
H    7.084005   51.133823   17.580162
H   86.486687   90.608009   45.453133
H   41.133739   91.704315   76.227692
H   58.171127   92.386368   23.878111
H   30.866913   12.684888    6.603025
H   37.372650   58.418919    0.212135
H   47.197933   61.016190   79.182823
H   63.503025   30.102839   14.058811
H   41.841526   19.220535   87.711205
H   55.237164   80.318947    6.352871
H   29.016029   63.291664   20.986418
H   50.819664   67.831367   98.105759
H   77.324768   79.143082   16.498098
H   95.374443   60.406593    3.414674
H   14.187210   36.899235    7.475702
H   96.547318   54.784798   26.633224
H   49.695488   99.374657   32.840679
H   52.891960   97.529411   70.733810
H   23.322655   65.940788   59.413029
H   21.620207   70.725967   88.511665
H    2.412481   32.965485   98.552864
H   52.130112   84.347397   59.224991
H   62.541325   85.900307   88.064705
H   48.803761   90.743256   37.919868
H   56.303768    7.790021   43.136486
H    0.255979   32.651070   96.405350
H   51.162495   49.090267   99.386559
H   43.452686   53.308723   66.122192
H   63.693581   51.924526   94.955093
H   33.875725   28.995728   32.884834
H   48.786045   87.544334   84.990372
H   44.830376   64.142700   10.631374
H   95.073959   11.265549   51.605759
H   72.642532   54.777275   70.592949
H   36.331482   63.090340   82.517044
H   85.312767   89.682266   18.974476
H   79.500717   20.407858   29.336510
H   35.713482   22.534012   20.444878
H   56.143341   16.729385   40.832901
H   55.968216   24.981777   50.890480
H   25.784060   48.349388   94.423241
H   80.151436   64.603905    7.780126
H   27.320107   82.368996   17.434355
H   90.888809   90.022888   25.240200
H   97.128029   86.451950   23.808569
H   16.958397   63.202713   84.657021
H   54.795517    8.750505   99.195740
H   83.767632   13.412615   47.695347
H   74.608719   11.533884   44.846382
H   28.423954   58.700504   30.850658
H    3.669008   73.125809   31.591866
H   20.270176   30.358271   92.744682
H   54.148045   84.802147   14.848796
H   76.361687   22.105391   12.356092
H   88.593414   71.929802   80.988037
H   19.310877   49.972507   31.124638
H   40.430130   43.327599   17.109222
H   34.462864   41.747936   52.008404
H   31.734959   52.097122   86.015823
H   94.041389   27.368948   44.670109
H   33.063168   15.275002   53.366585
H   93.655441   73.511490   30.941124
H   23.557529   53.317753   25.462273
H   47.633949   15.739616   81.002090
H   75.353287    8.819408   83.216362
H   80.689400   27.079355   18.341160
H   59.799850   59.700233   67.291435
H   73.336098   38.498234   58.909130
H   67.444756   86.133858   56.481171
H   62.599007   63.734489   12.136797
H   63.696609   86.325081    8.066037
H   35.759357   41.793427   43.775536
H   93.449615   48.146538    5.209036
H   66.955124   36.832790   67.888412
H   11.289498   26.497528   36.756462
H   51.308556   42.044575   44.113544
H   14.076004   47.752445   81.627022
