100
TIME:    1.424, STEP:  1424
H   21.022997   91.433334   97.842300
H   61.659096   81.952599   67.825737
H    4.232068   76.352486    6.619661
H   81.715622   73.981041   62.110569
H   82.416412   86.897408   27.093773
H    5.934603   99.665367   19.768938
H   78.337837   57.494083    1.811441
H    7.962708   11.796625   77.447472
H   18.623360   49.381638   10.450830
H   35.924843   36.829887   63.454689
H   67.798019   23.539997    2.582956
H    1.488290   95.068642   91.567574
H   52.680893   75.553337   83.594749
H   84.573692    0.686850   65.608269
H   97.820778   42.828564   82.322433
H   44.268738   87.182793   14.836438
H    9.579945   76.168381    3.007624
H   31.574570   25.451721   50.179001
H   67.439934   38.092438   38.383900
H   54.151520   75.573105   13.285135
H   79.774460   14.453262   18.594841
H   98.890129   45.979454   98.003456
H   66.731575   83.040916   91.607101
H   86.736473   53.760380    1.314869
H   78.653801   73.237984   47.068832
H   40.129566   85.178024   55.700462
H   39.285652   83.283646   28.223959
H   12.389122   22.907207   13.841887
H   42.134537   78.288513   89.859642
H   55.595562   55.595993   96.592949
H   72.117867   49.741943   96.729492
H   55.669376   13.170238   67.437263
H   70.663284   64.295616   26.082121
H   38.269127   43.221565   11.760696
H   45.376076   51.276711   11.440964
H   96.365631   96.346024   15.744409
H   16.379482   52.386574   20.670782
H    5.135866   32.890896   22.929501
H   86.702744   50.109795    5.642677
H   29.068880   78.873482   50.072025
H   37.926270    5.044148   75.893356
H    3.640188   75.768654   69.702042
H   23.506582   72.039246    4.330868
H   88.427681   36.636314   19.965536
H   33.134361   75.705826   77.965530
H   59.715939   90.077400   88.953590
H   51.116199    2.556389   39.791206
H   56.315464   10.044817   56.686977
H    6.657119   14.514130   87.670212
H   55.755627   52.423588   84.068321
H   43.435978   32.165947   68.431290
H   74.336815   31.602148   80.579208
H   38.418732   30.265564   20.165527
H   43.715054   83.972084   94.654495
H   27.395187   83.340622   12.489763
H   95.347977   11.035391   44.150482
H   86.527191   48.458168   91.421608
H   20.023495   42.408714   76.876297
H    2.585654   98.935364    2.161674
H   65.047974   37.241543   23.107628
H   49.527966   12.350108    3.370281
H   48.370605   14.690695   30.923164
H   70.822861   10.046997   35.866310
H   40.822922   49.540695   88.478401
H   88.843132   47.111965   28.175203
H   13.866590   71.481819   30.383345
H   73.318283   97.595123   35.813793
H   82.000267   98.976547   34.278034
H   27.873978   47.466766   70.922737
H   59.231590   19.765776   98.734589
H   76.813606   98.511330   45.068790
H   56.550999    4.265324   60.881409
H   14.144142   47.868465   25.234974
H   98.849297   59.267311   18.576042
H   30.829033   30.669882    9.346497
H   59.325970   98.837181    0.113173
H   96.244652    3.123891   16.231157
H   98.882431   57.609978   93.081558
H   29.808748   49.330906   33.567101
H   29.689987   31.399534   98.242409
H   38.748562   44.013592   65.097740
H   48.167629   53.527359   67.703445
H    7.898724   31.023905   65.528839
H   48.129108   34.015118   33.363319
H   82.992157   59.813454    9.711588
H   18.516613   61.362835   40.670235
H   62.260460   99.816513   91.444824
H   78.878754   91.285858   80.940681
H   85.234077   14.886380   16.549187
H   40.437752   50.689407   75.120979
H   82.298470   50.322750   63.534008
H   83.648537    2.604848   60.653252
H   76.650749   70.297470   29.079828
H   84.862801   99.608238   22.832062
H   31.973232   22.176125   48.808098
H   11.538193   39.498283   93.897308
H   49.571732   49.400829   55.293640
H   12.093589   28.362183   33.252716
H   40.875847   42.988598   25.769421
H   27.676620   42.126736   60.534370
