100
TIME:    5.292, STEP:  5292
H   59.445961   36.717903   94.301041
H   54.322762   91.628937   11.782660
H   70.722290   54.631470   61.227390
H   82.364853   14.619781   50.091209
H   47.771088   96.934647   22.216908
H   45.958660   95.474876    2.830288
H   75.615578   18.678265    4.294328
H    3.945534   46.426647   22.299702
H   23.540474   77.489120   66.975670
H   30.222960   92.368645   14.917723
H    8.006073   79.177750   29.997597
H   53.861702   88.951408   16.238737
H    6.373489   41.573128   99.182060
H   93.053047   88.764442   59.964737
H   44.870064   97.325027   96.390045
H   88.743469   48.871414   93.758514
H   98.555855   31.995396   55.139984
H   14.233546   37.327389   16.077875
H   27.693123    0.357385   42.164539
H   49.939766   93.433144   76.636604
H   50.241936   29.382019   13.610703
H   69.729538   51.109192   68.615601
H   15.088073   51.582726   80.939529
H   27.354557    0.135956   14.042811
H   40.311188   66.478683   75.622475
H   22.422400   70.214905   92.782227
H    5.743402   22.494308    4.966672
H   86.018166    3.452360   41.698692
H   26.240776   29.223356    7.017051
H    3.912647   59.862724    4.087794
H   24.328205   96.599838   90.692741
H   99.897469    6.301543    9.357063
H   43.118824   81.294655   74.542107
H    1.700523   88.742577   48.807152
H   49.226944   58.885483   46.973297
H   32.661716   99.920403    2.788891
H   87.370605   10.730679   25.454082
H   45.263264   62.110607   95.883980
H   21.694744   66.113396   31.477774
H   64.745201   16.763729   54.398685
H   73.581100   37.763962   67.022926
H   56.005669   49.366379   51.419178
H   56.823933   95.234497   83.720436
H   41.431118    1.468792   98.160202
H   97.614204   23.097084    8.960990
H    9.812771   63.853626    4.660445
H   83.078415   12.634645   76.264305
H   56.522038   49.875854   96.016930
H   19.721527   94.166931   33.373566
H   36.866879   11.278975   13.535393
H   43.140873   58.735123    9.213136
H   62.313667   72.682007   26.651848
H   18.643330   52.693542   95.517601
H   54.138832   20.858467   65.337730
H   19.438118   22.370279   45.359165
H    0.186876    6.967052   12.474640
H   31.741638   36.848473   59.300697
H   32.001846   77.123451   77.245224
H    7.646177   62.369049    5.212872
H    9.802231   34.549000   13.093513
H   93.523682   32.469921    1.790752
H   11.093458   78.684891   55.909584
H   33.333920   46.166794   70.582123
H    6.431267   70.590912   83.462067
H   42.371361   38.180790   88.389671
H   76.250114   79.192131   59.087669
H   62.981476   31.321316   22.560303
H   14.811299   20.192545   19.190802
H   20.654051   69.536964   28.327446
H   37.601456   14.313984   90.589691
H   53.988029   35.332794   98.665413
H   37.617584   75.893707   44.077530
H   61.943115   56.540802   26.060966
H   13.712612   14.488724   88.721275
H   17.320307   36.184780    2.567085
H   50.766335   46.740799   39.844952
H   47.434574   67.871773   84.640053
H   80.608109    4.688996    6.696094
H   15.284537   37.974453   76.727196
H   39.996513   20.737946   65.010712
H   14.427912   84.029831   96.279854
H   38.391220   78.788345   44.264061
H   52.606590   95.620300   33.927113
H   14.231482   65.007004   80.074310
H   94.652153   17.866570   34.752266
H   29.495701    3.437285    9.275786
H   20.595449   18.581421   75.886475
H   41.138321   81.604645   40.709114
H   65.507431   99.522667   84.909065
H   98.454254   91.547531   13.394302
H   40.593132   59.183025   45.219158
H   69.853310   93.488632   34.361076
H   24.680727   86.307014   28.243061
H   58.718689   34.232616   83.630623
H   65.095802   75.704948   37.689732
H   31.019119   86.756744   94.110062
H   42.547997   71.377754   32.841476
H   26.290167   61.295898   71.349800
H   56.614380   59.662029    1.775678
H   67.916199   42.832233   87.945450
