100
TIME:    5.779, STEP:  5779
H   26.511946   92.058495   93.855179
H   40.872597   18.018637   42.490170
H   79.097061   89.668777   55.509212
H   82.446594   94.554657   23.395832
H   43.409073   35.969757    9.013332
H   38.405018   94.947273   51.060520
H   50.092014   51.564289   42.378407
H   65.668289   88.559036   77.585670
H   11.569084   30.666199   36.319313
H   16.916479   99.361244   33.988956
H   62.706528   98.773376   83.086708
H   35.272980   13.361845   81.573769
H   75.296951   12.122700   50.791191
H   68.939354   87.263374   97.023689
H   50.792595   53.823776   72.982300
H   69.162704    6.276536   53.333710
H   59.394325   64.205223   99.473511
H   24.647978   13.632107   99.196327
H   35.277546   20.788836   67.820724
H   36.820282   83.089149    9.793756
H   21.342659   80.899780    0.392769
H   16.418701   51.755692   27.143021
H    8.584992   47.621986   67.006348
H   82.105873    5.961886   77.875000
H   22.893826   27.856140   79.219093
H   20.202379   55.818886   46.986168
H   63.750359    2.249805   14.629944
H   44.926296   26.183876   57.798019
H   36.829994   73.408142   83.996155
H   22.585567   47.809593   42.802170
H   43.495804   40.269604   52.162849
H   30.646702   92.845474   64.273079
H   77.422722   45.662865   18.414915
H   22.278259   44.111809   28.290415
H   37.121796   22.071657   76.628403
H   74.996292   38.065147    1.257321
H   34.080544   92.895142   63.827923
H   25.136318   53.197086   30.249554
H    1.137348   55.501884   84.284477
H   18.876577   71.173347   92.714012
H   40.297516   54.472633   78.496437
H   13.191461   64.265488   74.986595
H   61.018749   98.154892   18.897617
H   10.335802    9.643270   45.775673
H   55.369556    3.883570   50.635235
H    3.528323   73.142410    6.639010
H   86.883102   39.120193   80.938423
H   56.548046   54.891800   26.149664
H   33.955666   53.832237   13.946767
H   47.080830   18.691427   79.472946
H   43.104778   11.718191   14.347049
H   85.981499   27.491096   94.680550
H   28.745815   55.517334   67.235100
H   42.862244   12.911342   86.828270
H   80.662163   65.049896   49.501965
H    0.793477    6.454776   95.895996
H   62.613853   22.796394    5.618406
H   95.739655   31.132769   64.701645
H   46.053635   82.945747   67.827217
H   77.663879   71.982025   99.242088
H   24.244545    9.822290   63.818340
H   93.809914   74.151962   33.872864
H   66.398018   12.934246   37.187073
H   39.873222   73.243790   70.242264
H   61.703186   99.284561   33.742558
H   46.332787   54.981834   87.882912
H   23.908733   48.156391   46.072830
H   81.170616   48.044834   42.472218
H   44.927509   34.544243   97.782928
H   47.466148   38.809097   89.564209
H   38.524055    2.197443   92.824623
H   97.462601   59.731216   79.733688
H   30.190216   32.453117   13.573120
H    2.993329   83.665794   59.784843
H   40.799809   36.879581   39.485855
H   62.280716   77.953178    7.076651
H   91.650597   25.660425   93.252617
H    3.488261   72.846718   33.592407
H   38.636578   36.543980   82.159279
H   16.117481   94.209724   23.055035
H   23.958055   89.068069   25.386061
H   74.941254   81.948471    3.527240
H   83.409584    3.764380   80.306580
H   47.735268    6.680376   35.594540
H   70.939735   87.405052   87.543228
H   18.285992   21.325634   43.094589
H   53.121071   83.172401   99.108444
H   48.971214   42.632359   35.658516
H   75.613632   72.406837   80.926033
H   55.398121   71.513474   30.803209
H   60.523155   85.480759   55.503704
H    5.886377   30.114965   43.638718
H   55.898483    0.916641   65.903519
H    5.786130   63.778393   16.468004
H   56.676445   32.082081   48.880863
H   71.243286   67.525238   68.956024
H    3.892838   99.325859    4.833552
H   27.122522   72.402161   62.865753
H   33.414703   61.761295   60.986320
H   98.167923   30.336708   41.031536
