100
TIME:    4.671, STEP:  4671
H    1.442230   93.666908   94.869583
H   71.473793   57.979851   72.628235
H   60.044922    9.954673   68.516014
H   82.260620   40.205803   84.129890
H   53.333328   47.158752   39.053864
H   55.590717   96.147652   41.331043
H    8.163883   76.746490   55.731289
H   52.754906   92.703186   79.318504
H   38.805840   37.195862    6.063517
H   47.193703   83.452003   90.600311
H   65.769989   54.190311   89.815125
H   77.562477   57.823708   60.442070
H   46.000900   79.125359   60.887939
H   23.800476   90.678535   12.704646
H   37.317924   52.794708   26.241116
H   13.713123    3.186235   45.307556
H   48.493141   90.921448   98.607903
H    0.954279   67.541237   37.604931
H   18.020794   74.308609    9.449656
H   66.669884    6.622122   34.355995
H   87.092964   91.204193   30.465618
H   10.193665   50.284805   21.499451
H   23.379448   56.633278   98.706482
H   85.054962   92.702972   60.164948
H   62.522247   15.725456   71.036232
H   25.253267   88.569351   51.178097
H   59.294205   48.310001   92.646584
H   38.416439   74.466202   21.169573
H   12.737605   72.881706   36.370796
H   80.100433   75.232323   54.719521
H   99.887260   40.913067   39.824287
H   60.686993   23.457924   66.846184
H   99.375587   26.729380   18.597525
H   75.462204   45.653412   74.969582
H   64.662872    5.828287    9.160484
H   78.679840   51.281590    4.742334
H   27.809015   33.474594   76.521896
H   70.929497   73.472771   52.060123
H   47.909290   79.644707   91.657974
H   23.237787   74.900429    5.538481
H   16.022011   16.457830   52.392437
H   11.817926   21.494478   22.248209
H   51.474895   91.510544   38.865089
H   81.084259   91.049500   37.440895
H   51.480480   47.596527   55.820820
H   17.825397   52.008991    2.135979
H   78.226852   78.862450   70.304085
H   56.488873   43.479752   57.592934
H    1.570602   45.596943   58.147804
H   23.842518    1.826956   56.967300
H   43.188251   18.688644    2.666605
H   32.133537   30.305113   67.420685
H    5.761943   49.092773   31.584246
H   68.519707   30.992737   37.933983
H   68.882965   67.944344   40.076458
H   99.410690    7.620284   33.614944
H   92.373413   54.767036    0.238307
H   78.243301   35.769661   93.240219
H   58.667488   36.130814   52.888565
H   50.780109   86.816513   30.756233
H   54.351105   61.347141   50.207230
H   33.131706   84.465073   84.006424
H   91.174522   88.542160   13.165977
H   63.790115   67.208084    0.319442
H   17.721678   87.779114   30.559362
H   14.398449   10.063606   22.369299
H   12.805285    9.852069   92.577499
H   57.707863   84.676346   89.503410
H   89.703720   14.158051   67.276947
H   25.021139   83.080566   91.897339
H   73.706978   77.584976    6.114892
H   88.821869   96.503372   98.610130
H    2.432941   87.259895   41.984894
H   27.381664   53.790279   25.618340
H   87.378914   35.298801   55.491665
H   36.083725    6.939564   81.630081
H   91.051407   21.694771   73.657707
H   51.432400   45.295597   72.402733
H   85.504326   39.798527   69.800453
H   70.450500   54.562099   18.510277
H    2.276222   77.605301   59.163509
H   91.795647   74.732742   96.190941
H   13.325045   85.234924   74.786819
H   71.506302   11.866426   36.793091
H   24.890585   56.712234   94.951439
H   43.789806   80.628899   66.151611
H   79.120247   63.733170   46.274887
H   31.141653   31.322535   47.166809
H   52.620468   34.097847   89.988045
H   53.360058   17.097214   91.194656
H   15.179282   25.652782   32.104778
H   23.905256   46.783226   22.530478
H   84.873741   67.672935   80.220139
H   98.697037   96.563019   41.759983
H   75.831779   31.329941   23.420738
H   79.727020   11.279186   26.185921
H   91.840630   35.739620   68.555420
H   24.011259   56.008453   81.289818
H   86.197540   56.985142   53.792564
H   29.344843   58.765636   47.768429
