200
TIME:    0.210, STEP:   210
H    8.549304   62.574558   14.826595
H   27.696894   32.440201   88.679298
H   18.766487   67.825058   43.870537
H   16.831249   76.623116   45.284187
H   15.528661   82.968903   54.089828
H   90.594543   53.629242   66.437492
H    2.924593   55.325417   49.070690
H    2.216344   87.590912   26.137203
H   86.210136   87.955978   48.451267
H   11.917263   75.319115   97.255775
H   11.148001   93.953316   92.013641
H   30.653748   41.222099   11.312823
H   10.437861   86.012245   62.521233
H    5.821720   53.080364   40.820187
H   21.070292   71.713646   43.052406
H   30.174831   27.202442   54.970169
H   82.796127    6.313467   16.888596
H   37.274574   81.724854   44.054462
H   64.027267   30.788017   42.042206
H   89.960808   80.116661   38.633671
H   57.725044   75.260681   27.214909
H   90.696907   47.667671   71.730774
H   95.903572   62.759583   49.856041
H    7.972868   87.785820   91.680092
H    1.942507   11.497389   46.480831
H   18.685926   61.004986    7.947378
H   98.314857   58.194798   47.875656
H   93.821808   68.891869    0.652334
H    9.805051   57.441597   38.514030
H   94.405090   19.960684   99.663651
H   13.400660   50.195896   16.158134
H   32.471592   62.803207   92.864525
H   27.848167    8.340006   72.812714
H   97.419441   63.545189   37.765930
H   49.428104   91.040634   34.447285
H   34.041214   50.605965   79.132469
H   85.403412   75.076508   85.729713
H   34.398861   43.979290   16.516300
H   54.180557   47.474873   43.764786
H   90.370453   39.811855   64.868256
H   80.495384    6.625203    0.528515
H   11.846087   43.735970   40.720688
H   77.242020   88.471092   49.214314
H   37.348099   61.777008   17.675394
H   27.752016   75.379852   43.281303
H   41.481964   14.619242   42.361607
H   79.408813   27.681946   95.521202
H   90.846184   65.551064   48.726151
H   85.920166   29.890621   61.144703
H   63.190968   17.666121    6.981648
H   78.921890   70.875832   29.057659
H   22.284929   35.181622   62.896538
H   51.367783   95.280769    7.535735
H   22.853085   81.550613   81.258904
H   78.468735   77.052124   91.743584
H    5.690233   73.089119   77.665863
H    5.516100   16.631935   49.976398
H   67.080917   57.881992    5.844903
H   28.814192   73.897934    6.400901
H   43.797146   96.157631   67.548813
H   50.516678   15.961714   43.113007
H   89.397675   16.353815   48.836269
H   70.620819   24.584997   85.897034
H   23.399166   65.109535    2.997696
H   70.866119   75.631836   16.702852
H   39.916496   15.395617   32.324051
H   87.295753   23.794788   85.215309
H   97.509422   91.381721   86.677605
H   15.455397    5.447841   62.359520
H   45.409657   41.107105   50.984196
H   58.478325   76.073257   72.478882
H   32.983578   24.610388   44.974827
H   76.541641   25.144451    0.500292
H    6.888009    9.624101   59.699329
H   78.779739    0.385950   69.023315
H   52.555473   20.135754   63.073509
H   95.554382   28.833368   72.569923
H   27.666405    5.423655   48.993385
H   11.302479   28.356813   35.602901
H   68.728134   90.834259   95.684357
H   42.094830   30.609079    1.578926
H   25.317356   69.129723   88.784660
H   11.116757   13.337226   91.157478
H   25.652365   60.878609   92.873749
H   39.976524   99.006622   58.632378
H   23.822010   86.823975   28.407326
H   34.510651    2.721596    1.702548
H   75.580971   19.660887   10.310655
H   64.770340   71.976051   77.057152
H   23.594391   84.702477   55.195553
H   42.500412   34.633816   80.887924
H   84.264397   88.272247   97.713242
H   45.834560   17.200443   96.584244
H   61.373119   95.511452   68.280922
H   24.364727   57.332008   66.690315
H   70.514442   27.038559   30.472223
H   78.898643   15.316809   97.037186
H    7.719412   27.972534   48.309528
H   37.697685   70.078552   52.774933
H   66.682808   97.439865   27.243082
H    8.527776   79.596924   67.527138
H   89.456734   76.202698   66.030083
H   22.557524   38.266296   30.083588
H   20.434347   67.884094   88.971039
H   25.378508   27.866982   24.114902
H   86.235435   28.241674   45.295303
H   64.237175   29.724276   56.398849
H   64.927895   33.122528   19.901636
H   72.034157   40.468338   97.681938
H    3.403030   28.478670    5.390437
H   46.799835   96.327477    0.774744
H   84.789352   62.590790   90.169441
H   57.615089   79.926529   94.587914
H   63.325798   20.044109   75.727600
H   64.851387   80.719330   27.824543
H   15.262811    6.674959   77.581009
H   33.808384    8.020280   83.830368
H   40.923321   25.519848   34.578178
H   17.723024   56.587284   85.022354
H   69.990929   46.076107   48.223640
H   40.241463   21.560078   88.502876
H   19.583538   28.190708   47.305710
H   31.513128   23.087826   23.139200
H    4.519311   68.398460   19.178928
H   77.814049    9.694875   93.805336
H   46.623257   61.531544   26.110628
H   96.132332   49.049850   72.213364
H   76.084877   87.334679   34.749203
H   92.098534   53.569599   85.573936
H   66.291107   24.291538   65.990517
H   47.397942   86.256866    2.264884
H   82.851509   85.753830    8.619512
H   92.535713   81.135155   97.151993
H    2.391635   12.233770   49.337791
H    2.944059    1.912560   57.795441
H   63.157104    1.665353   84.123573
H   68.843048   86.488075   53.845207
H   90.962456   65.157509   83.672386
H   45.529083   43.914093   71.557182
H   43.431694   10.528768   96.291077
H   49.132442   63.950890   13.940886
H   58.619370   40.099304   45.547543
H   55.969894   56.208813    0.396122
H   59.087746   27.613682   77.627296
H   38.891796   70.762024   48.087559
H   44.840927   61.458801   31.282974
H   44.021721   96.909172   47.496700
H   43.471611   74.535408   68.997093
H   64.383270   66.044724   98.242691
H    8.505606   88.347244   91.119659
H   77.277657   60.800457   51.570675
H   32.524513    7.939785   49.092461
H   74.782089   32.960339    4.517786
H    9.116844    0.454132   76.693871
H   12.422924   53.086765   60.210419
H   62.611519   43.454517   53.137993
H   58.997234   59.983967   80.400558
H   45.619545   37.141235    9.021294
H   13.754837    1.847371    3.717441
H   64.016014   58.167877   77.089798
H   53.661263   85.628181   84.213539
H   45.012646   23.211769   35.803871
H   63.928005   35.877892   37.244526
H   10.173500   19.298351   72.482361
H   59.241432   21.070410    9.529774
H   11.396823   65.393684   62.465816
H   75.416420   98.052193   51.903667
H   23.606007   29.567627   46.772175
H   93.665321   28.267771   36.927773
H   25.103897   10.686107   90.741180
H   79.938110    5.277050   35.978592
H   47.199318   66.561310   57.365990
H   37.093300   78.743301   91.268143
H   71.593285   75.263428   73.549088
H   72.832214   95.262222    0.641972
H   99.981140   47.498802   23.257963
H   35.725933   51.983994   85.653008
H    1.464120    9.172249   64.496597
H   76.368782   22.076967   69.485718
H   87.727608   54.133293   85.961800
H   81.965530   84.114357   42.416817
H   18.622561   30.069424   68.520966
H   67.016220   90.196884    5.476267
H   50.827690   25.164778   76.086617
H   85.135010   89.635574   78.520432
H   98.632378   35.970627   83.804054
H   30.307467    5.038450   98.600479
H   91.862320   65.953804   24.476837
H    7.487156   61.039623   66.200546
H   49.068031   58.436504   65.323990
H   46.387127   32.016891   79.515694
H   47.898849   84.113922   25.006506
H    3.434102   16.810314   57.118996
H   35.627705   62.333687   32.708691
H   85.924118   55.595325   21.914417
H   75.254898   10.309832   29.977386
H    9.261867   84.741386    2.454195
H   29.781359   98.002419   47.812775
H   12.313367   11.527952   79.358772
H    8.320646   36.009090   98.165588
