100
TIME:    7.664, STEP:  7664
H   99.037590   19.195580   92.129410
H   88.816116   20.164288   61.346310
H   11.508089   25.282475   33.376225
H   82.762985   16.893650   20.072353
H   26.522966   87.060738   57.902496
H    9.168454   92.905113   37.737610
H   51.298985   78.848053   89.787933
H   17.511009   51.634594    4.510104
H   65.232124   49.431076   17.664997
H   65.428688   26.428682    7.794958
H   87.368423   74.620316    1.514612
H   63.330017    7.847307   47.396858
H   55.041908   98.094711   63.478611
H   75.605888   81.453285   40.474285
H   73.692940   85.446579   82.339874
H   93.369781   41.407593   96.861603
H    7.813778   88.885101   71.072510
H   64.958725   21.908569   33.853844
H   64.630310   99.865677   67.129578
H   86.035568   43.058834   38.133339
H    9.484085   93.241455   49.227932
H   97.135483   54.258057   66.617889
H   83.416756   32.291405   13.073737
H    6.961454   28.511934   37.878433
H   55.475410   78.366928   93.140297
H   11.470943    0.168723   69.666786
H    1.203228   23.892996   52.035854
H   85.875603   14.169303   20.102957
H   77.817009   44.429798   94.891380
H   94.865585    1.155159   92.654991
H   17.681536    9.301783    3.027772
H   49.666866   40.762432   89.769218
H   10.198339    7.747988   88.230598
H    1.923472   71.362862   48.878693
H   90.219765   79.397697   91.335342
H   38.855793   85.705933   95.331551
H   14.876664   23.863531   12.358455
H   47.224358   18.696087   63.267204
H   21.571552   14.431658    1.614168
H   41.330246   94.704987   41.022186
H   11.471682   19.154013   22.904997
H   54.333794   71.657532   71.219688
H   77.243622    9.461929   55.051334
H   89.971695   41.282372   30.080967
H   91.860634   29.510197   11.939075
H   79.196190    9.094436   14.297110
H    1.610643   41.633003   99.030235
H   56.655392   74.306702   42.782421
H   89.057381   97.718391   38.753975
H   86.647217   47.384418   47.665886
H   42.975346   29.734148   34.216064
H   77.598801   52.576984   70.942902
H   67.847450   66.447205   57.757484
H   99.214417   82.159348   70.007584
H   30.576271   30.240944   65.535858
H    3.141262    4.471939   31.726151
H   82.115967   68.404915   84.897560
H   55.378342   53.117287   16.147661
H   94.716927   62.600567   23.120720
H   53.272873   16.868198   45.628197
H   43.151958   22.160492   16.850822
H   26.907600   56.606644   48.583336
H   94.369270   84.305206    7.926971
H   69.314018   83.512115   19.060581
H   36.519852   48.733829    9.283725
H   30.535736   61.273186   99.339340
H   72.671326   13.327444   37.080791
H   50.960899   55.849907   32.586121
H   38.875244   99.100182   79.560425
H   85.676613   33.587154   85.588379
H   78.665550   73.943542   70.217049
H   42.155521   97.124413   17.814665
H    7.283571   39.219532   65.247620
H   61.490429   64.363525   47.784363
H   31.653044   39.600025   82.391388
H    6.836730   98.762840   80.238960
H   62.837605   62.462944   26.663149
H   92.048981   49.591549   37.694004
H   29.029982   31.007137    3.186571
H   23.675194   91.524651   60.660744
H   60.850471    8.569955   38.049713
H   16.397278   94.172806   45.833698
H    2.639341   35.287266   59.824631
H   77.419685   67.984253   63.428173
H   79.156876   69.490562    4.814197
H   74.905930   90.565491   73.994583
H   79.016014   46.117241   88.992378
H   79.287224   91.793030   16.114182
H   14.733403   67.452995   65.509163
H   88.738159   93.957047   98.187531
H   37.665180   87.265480   95.311447
H   45.357288   71.885483   79.555321
H   76.730713   57.478680   11.673465
H   87.962044   78.138878   43.570492
H   24.086426   63.236244   92.197662
H   26.936600   93.089539   71.593300
H   54.269920    7.500972   96.424736
H   23.484026   65.672447   25.026941
H   43.617668   69.897209    3.096132
H   15.252527   81.962448   59.443699
