100
TIME:    7.332, STEP:  7332
H   21.488951   49.641212   92.433365
H   97.985428    2.173064   40.411404
H    5.801210    1.397921   37.274448
H   82.707260   30.572895   38.270832
H   29.497927   60.449474   66.904633
H   14.317327   93.264793    4.858315
H   68.698563   56.430508   63.825100
H   43.605553   22.913372   34.994026
H   73.393318   81.351425   38.563572
H   74.496681   21.661654   94.795204
H   18.250244   61.261494   33.494415
H   76.000015   91.206055   71.029366
H   76.212379   18.189411   96.472893
H   92.044792   82.476601   15.208019
H   69.660469   15.102440   98.307648
H    6.719006   70.445435   24.421038
H   34.511360   66.924347   40.849239
H   57.859180   38.063782   45.361076
H   59.460232   85.939468   49.639042
H   94.981979   50.108059   15.529215
H   29.185440   26.293465   58.237667
H   65.306320   53.817322   94.890778
H   87.849434   34.991539   22.573404
H   37.809334   24.540255   62.536789
H   67.349922    4.694962   90.688393
H   13.036312    9.954796    0.908354
H   29.832010   37.694344   45.447628
H   13.889182   98.672691    9.128516
H   70.598076   14.308559   10.584890
H   82.134933    9.372711   66.261559
H    4.614715   79.529907   29.294502
H   28.704098   49.934277   20.504066
H   86.813240   32.037804   58.321419
H   87.895851    1.788741   62.865692
H   98.482277    4.534750   71.137527
H    9.996092   59.702576   96.375130
H   83.032974   36.022583   86.198334
H   60.945396   24.772655   39.839867
H   35.586414   21.664522   33.786667
H   72.600319   25.785772   14.900609
H   34.160782    7.763289   15.083294
H   82.312859   70.355591   54.270580
H   74.386444    7.470390   31.071812
H   11.171467   35.709862   97.619987
H   20.659466   42.608128   83.528877
H   83.481956    2.763074   12.948309
H   99.015915   23.577480   95.843773
H   56.635128   70.887207   22.240124
H   79.351082   25.213940   51.998817
H   79.676514   42.331165   70.879707
H   42.998142   61.786301   30.715981
H   61.463848   83.383774   92.736481
H   60.961750   64.522156   77.038368
H    6.902199   87.574814   55.356949
H   57.010300    1.145788   62.712986
H    2.727756    4.821171   43.028214
H   61.067432   77.984566   53.321693
H   80.100021   84.470253   24.700197
H   68.534477   48.570507   48.607796
H   75.181725   91.349579   55.071068
H   22.208860   37.599686   42.735130
H   38.690926   59.696854   63.606316
H   71.831001    6.960195   30.693207
H   46.515446   81.703583   28.075382
H   23.341698   75.250305   78.366051
H   50.931030   77.777946   79.708908
H   99.307922    1.849805   21.051363
H   73.894310   36.862846   16.714600
H   22.327423   22.955566    0.381386
H   78.933876   16.912683   86.292542
H   89.207726   96.532471   74.198860
H   69.494255    8.148305   93.479256
H   28.931505   55.640705   73.758362
H   68.799675   85.376953   67.511047
H   15.661206   39.111164   57.218845
H   98.987770   77.485985    2.579463
H   32.685261   91.196968   20.775286
H   76.451019   71.299812   19.357912
H   13.110219   31.982327   99.481712
H   39.956406    9.610450   89.262917
H   54.350899    5.135262   18.206512
H   91.484230   92.019791   73.608467
H   81.640831   29.735022   28.205704
H   54.578503   39.574581   93.752708
H   95.322220   90.260826   36.997124
H   82.545334   78.371826   50.939590
H   56.842487   70.256340   73.161385
H   73.947746   18.359579   19.556473
H    7.842495   85.938530   68.224495
H   18.091196    7.616177   86.318085
H   24.078388   69.337196   88.300217
H   20.792650   46.915573   73.227989
H   55.448795   47.516552   85.999397
H   55.875160   57.996788   21.184259
H   29.827377   92.973251   84.568390
H   99.514694    6.199725   88.741432
H   80.622826   88.448303   15.518697
H   24.124865   49.245953   31.692423
H   59.433464   68.463554   30.905483
H   94.630608   90.483322   91.425201
