100
TIME:    9.338, STEP:  9338
H   85.831451   65.682503   90.596817
H   42.582901   10.875689   66.897087
H   40.282520   45.716698   13.726292
H   83.043961   47.925407   28.314573
H   11.522715   21.238861   12.514704
H   83.213135   91.091545    3.518948
H   63.563686   91.883965   20.696941
H   85.937912   96.458176   50.810219
H   24.082008   88.481247   12.293009
H   19.704618   50.464848   73.341194
H   31.657013   41.975647   40.264122
H   99.433784   91.756447   28.239590
H   48.296432   96.772362   97.123123
H   92.720016   76.293556   67.867043
H   94.025337   35.916634    1.837409
H   26.062851   94.993210   57.905334
H   73.200569   99.607903   23.463331
H    0.754396   40.451744   75.824295
H   90.709930   70.095428   55.322392
H   40.932789    7.511053   52.107048
H   10.146364   26.590021    3.794606
H   57.623501   56.480316   24.061295
H   61.066444   18.683123   65.179337
H   51.423527   48.537811   13.552753
H   95.604721   45.610916    5.500564
H    3.576156   50.819260   12.134233
H   56.853577   54.308720   85.246628
H   44.628098   92.305984   75.438316
H   14.217065   96.308708   15.759819
H   59.053246   59.723984   25.732517
H   83.565071   59.411449   70.586258
H   55.364307   94.514099   34.798622
H   28.113220   85.270172   39.037743
H   72.654709   17.950592   78.356636
H   48.558784   52.652351   93.183746
H   84.374069   16.824785   90.069649
H   75.434174   62.557381   44.263142
H   78.034264   88.063545   81.397682
H   50.913334   77.958458   39.390518
H   83.657974   37.991020   72.729874
H   97.065842   76.590729   62.343716
H   13.258207   78.222137   56.681080
H   91.649994   19.504719   75.965630
H   83.085609   69.387367   93.754341
H   46.653229   63.475140   55.191433
H   57.590424   41.018871   21.097990
H   14.697808   32.671383   15.105885
H   56.757565   91.548370   46.359684
H   37.988510   59.076115   71.978943
H   21.788206   72.868217   30.619534
H   43.276875   68.152214   51.227524
H   58.955975   97.241623   61.054512
H    2.561345   76.153625   60.537567
H   60.440994   54.849373   43.875801
H   97.288979   76.942993   79.763428
H    5.226227    2.711054   74.739227
H   88.240768   20.102699   44.109016
H   30.728765   95.027901   73.029442
H   26.747093   33.333282   94.606895
H   42.806629   45.538479   98.015663
H   48.751087   44.310482   86.335197
H   67.494041   41.025284   72.841576
H    8.017051   70.074608   93.135773
H   84.263916   92.631042   73.614700
H    2.963334   15.032276   65.175941
H   27.700897   78.054008   98.319801
H   38.363663   71.199097   17.900814
H   35.326340   51.587898   12.613007
H   22.306147   78.817215   74.570496
H   19.674911   17.668711   82.037872
H   25.501656   60.041889   50.140083
H    4.306094   41.542381   40.517307
H   98.136841   56.413334   22.322491
H   24.644344   58.416851   48.321022
H   12.291974   42.064945    9.315023
H   46.415245    6.050551   67.599197
H   14.872296   17.572323   56.355988
H   70.688255   40.138878   30.152771
H    9.305511   26.090069   21.869242
H   41.580650    0.333584   16.444054
H   93.622414   25.888254   38.102959
H   42.011810    5.033846    5.787198
H    8.522375   63.282627   19.246662
H   92.588707   11.231922   10.535900
H   97.648483   64.770737   42.539215
H   36.377605   52.055496   90.242157
H   90.818748   24.403496   68.815041
H    6.209311   57.840126   98.758423
H   49.475346   74.247490   51.818001
H   40.734303   25.085327   58.025658
H    6.172324   77.654404   30.663597
H   69.216339   97.786682   11.454515
H   84.037384    7.700201   41.126457
H   49.329689   79.666122   57.083447
H   95.141068   13.287960   30.661974
H   65.202103   26.984190   85.128937
H   21.395798    3.567531    0.150778
H   20.252810   48.503948   91.416832
H   63.872246   77.125938   62.883251
H   19.231117   39.006199   98.180206
