100
TIME:    8.725, STEP:  8725
H   27.285660   21.897203   91.158035
H   59.512985   77.659637   28.243755
H   29.745646    1.615890   20.921947
H   82.941071   73.180229   61.917259
H   17.015638   72.104477   29.134026
H   92.716431   91.755653   42.812057
H   95.693367   50.492592   72.759529
H   34.118500   43.424862    7.092601
H   39.150719   47.419540   50.880245
H   36.449348   41.663074   49.339760
H   88.676788   17.311497   99.313637
H   22.831795   61.029751   71.874107
H   87.385284   33.874466   58.040070
H   23.071405   78.182991   21.216160
H   86.579842   90.672829   31.315521
H   50.710251   48.608604    8.789412
H   22.494545   59.060452   67.659523
H   87.640854   70.280495   97.075760
H   81.159866   44.378712   23.028957
H   57.446636   20.528978   10.371119
H   46.522850   87.615814   20.433146
H   98.854591   55.666550   76.263947
H   69.250877   23.666273   82.717407
H    8.379229   41.204559   59.080700
H   17.528591   94.223541    0.975580
H    6.467642   68.890488   69.821518
H    9.712061   79.789810   73.086899
H   96.351959   63.693211   55.176300
H    0.887206   40.691982   44.736076
H   35.547554   74.895584   77.001221
H   59.441158    4.443834   19.084846
H   16.658955   11.450891   91.547142
H   84.934219   30.119385   83.813858
H   46.754486   74.128540    4.181708
H   63.814568   99.065102   55.889774
H   31.086439   68.811722   91.996498
H   16.640366   85.006111   95.961327
H    3.372826   99.278557   38.139900
H   76.787865   91.315453   98.795471
H   41.395905   95.377708   24.499052
H   38.959106   55.556274   47.901699
H   64.918411   75.818253   25.387989
H   86.374542   15.826456   31.688923
H   22.223797   59.096138   33.818584
H   99.827133   87.654396    2.732625
H   65.499809   29.327358   18.607584
H    9.905238   99.332649    9.218939
H   56.720150   85.234665    8.430916
H   20.071617    9.846367   96.429352
H    8.921635   63.533520   73.481468
H   42.902493   27.301350   45.403061
H   29.164415   54.124294    1.293911
H   89.849083   72.599243   96.137863
H   74.638641   64.852692   16.826393
H   46.097694   23.221888   74.553452
H    4.462736    3.355870   95.607193
H   49.378166   37.790428   85.807487
H   76.374451   52.918785   88.818382
H   78.399361    7.430588   41.667595
H   83.258659   98.419769   15.450829
H   10.079977   72.817139   34.126286
H   89.250603   46.731003    0.575180
H   66.402176   11.904418   35.171021
H   42.170124   89.291794   90.254822
H   78.634216   63.993893    8.089870
H   65.358376    8.527837   62.074451
H   87.545090   50.006840   88.304611
H   77.670258   16.529434   83.308060
H   91.754242   22.863472   13.015160
H    7.225183   86.878616   83.338028
H   44.970470    1.750341   57.492043
H   54.784012   61.895897   95.585312
H   38.105286   86.736656   38.041279
H   38.136967   97.215065   84.744087
H   82.763504   41.162319   62.837009
H   31.921785   66.764885    8.848079
H   59.199051   70.630249   45.482384
H   41.891994   80.219215   96.296631
H   79.908257   27.890644   15.027222
H   71.643242   33.727867   69.254692
H   81.621696   19.546488    1.464315
H   96.013565    1.054458   57.069687
H   69.750923   53.031040   60.868900
H   50.414658   58.776466   66.522423
H   27.495941    3.120345    1.962828
H   50.487568   29.536869   47.673752
H   49.877872   68.973579   39.584923
H   96.351036    6.890789    5.113176
H   36.754398    8.378593   56.831551
H   94.931290   50.307411   36.114761
H   81.085625   44.554630   17.718163
H   23.860544   51.682602   99.776100
H   44.742756   89.309044   93.722229
H   90.502945   42.508533   15.111767
H    5.739715   68.198135   16.577734
H   14.570861   51.190918   16.791588
H   70.052910   68.388618   35.406227
H   21.436045   18.173714    3.725508
H   93.074303   74.478859   14.226749
H   81.154327   54.734341   57.233959
