100
TIME:    1.395, STEP:  1395
H   22.984068   94.092789   97.868851
H   62.465782   80.380379   65.996422
H    3.733649   74.266075    6.960196
H   81.710754   75.175804   63.700268
H   82.676163   84.572929   27.880104
H    6.384326   99.696785   16.896971
H   79.857841   55.535778   99.543587
H   10.242050    9.287788   80.110023
H   19.336235   52.169861   12.276328
H   36.717369   36.413490   62.319000
H   70.495529   22.373112    5.376371
H    2.595206   93.615013   93.631859
H   54.525475   77.307869   86.477226
H   86.009621    0.776257   63.401440
H   97.468102   45.418766   83.716324
H   45.434738   89.719231   17.243637
H   11.911448   74.250565    0.367263
H   30.954842   26.861984   51.184372
H   66.988136   36.875771   36.856152
H   54.932762   76.189072   11.310678
H   81.495361   17.340385   19.381947
H   96.109428   45.941177    0.472669
H   67.118767   83.276772   92.436798
H   89.430885   53.412571    3.468720
H   79.691032   75.538124   46.854881
H   40.262539   86.042236   58.418549
H   41.786469   84.489029   27.648481
H   14.835953   21.553585   12.883311
H   41.503967   75.657379   91.230522
H   54.483547   56.313736   94.287498
H   70.977089   47.141342   99.024323
H   53.838291   13.971448   70.121941
H   68.620682   66.417427   23.469572
H   37.043831   45.879250   12.982397
H   46.096916   53.468880    9.675148
H   93.844238   94.068008   15.844249
H   13.598008   53.448586   18.385687
H    6.334446   33.421680   20.883137
H   88.006363   50.728859    8.422240
H   31.800352   81.588249   47.790249
H   39.908028    4.049093   75.210129
H    6.246544   74.467247   68.339569
H   23.256788   71.865341    2.236188
H   90.279564   36.150223   17.130075
H   35.649780   76.850143   75.483963
H   60.090076   89.524269   88.835884
H   50.809986    0.991941   39.543404
H   56.313915    9.746237   54.892620
H    5.809474   16.915825   88.826920
H   55.147404   51.982189   86.096764
H   43.438190   34.965675   68.125519
H   72.927437   34.293224   82.482864
H   37.817146   30.097412   21.849812
H   44.386555   84.445122   93.374771
H   29.703957   80.798431   12.243675
H   95.311691   11.065868   45.137711
H   84.688583   49.294945   88.663475
H   22.183029   45.147377   77.623245
H    0.298555   97.710068    4.388027
H   66.961807   35.012424   23.932457
H   47.698650   13.698697    5.631315
H   49.399872   14.960678   32.235413
H   68.855927   12.024662   37.855812
H   38.831429   49.382942   89.265617
H   87.692177   49.428257   25.474485
H   15.648060   72.923500   28.668638
H   75.644974   96.592407   34.413708
H   84.003487   97.318039   32.891666
H   26.428535   49.550522   72.741432
H   58.644165   18.307169   98.795654
H   77.734459    0.484491   45.416599
H   58.942074    5.227827   58.758049
H   16.035076   49.302845   25.978603
H   99.487389   61.102600   20.299599
H   29.430828   30.628618    7.148032
H   58.640308   96.978661    2.064473
H   93.611748    5.637407   15.718042
H   97.519958   59.506332   91.480133
H   28.418619   49.415867   33.243629
H   31.112198   32.979012    0.740782
H   38.181049   43.713573   63.364452
H   45.991611   53.337967   70.128372
H    6.063795   30.539915   62.766727
H   46.134075   31.533548   36.012154
H   84.404190   61.627502   12.522766
H   19.184132   60.297504   38.656395
H   60.323616    1.925058   90.061996
H   78.411911   93.607681   81.242027
H   84.632271   16.501009   16.786480
H   43.001846   51.882622   74.084190
H   81.111671   48.756947   62.921581
H   81.502831    0.423848   60.100784
H   74.790016   69.428391   26.836218
H   82.059975   97.849281   20.876743
H   32.474598   24.773849   48.141685
H    9.142914   40.643486   95.395187
H   51.873642   47.736568   56.961441
H   11.987111   28.115265   33.716682
H   42.257347   42.863590   28.198551
H   25.875626   42.871693   63.327461
