100
TIME:    1.974, STEP:  1974
H   83.829010   40.995407   97.338760
H   46.359871   11.771528    2.519583
H   13.686117   15.921519    0.162717
H   81.807938   51.321739   31.961113
H   77.490112   30.982319   12.181803
H   97.406258   99.069511   74.238121
H   49.512280   94.630898   44.822227
H   64.733788   59.377056   26.947716
H    5.103310   96.501236   75.831505
H   20.895723   44.727074   84.989525
H   16.638351   45.670582   49.603405
H   80.498779   22.636858   52.417336
H   17.696590   42.277733   28.929661
H   57.340569   98.991432    7.461567
H    4.510672   93.701874   55.885292
H   22.154842   39.075935   69.182388
H   65.360809   12.540779   53.081604
H   43.328033   98.704842   31.111519
H   76.008507   61.167160   67.358917
H   39.334854   63.891018   50.731728
H   47.136673   59.700291    3.666977
H   51.627872   46.705391   51.173080
H   59.388283   78.567802   75.871475
H   35.635551   60.356754   60.468903
H   58.982170   29.617943   51.126526
H   37.607670   68.787796    4.149618
H   91.858498   60.422268   39.138187
H   65.980545   48.579357   32.021778
H   54.093613   28.188463   63.860191
H   76.685493   41.983627   40.315548
H   93.753304   99.063690   53.207890
H   90.396851   97.974724   16.520973
H    9.403057   24.054790   75.630463
H   61.507500   92.817520   88.590134
H   31.704918    9.700929   44.930573
H   44.186535   39.552120   13.853814
H   69.130524   32.244972   64.008789
H   82.401756   22.824291   61.739849
H   61.978584   38.368919   52.929169
H   77.264198   27.383715   93.344254
H    0.341202   23.916327   88.851120
H   54.209320    0.450574   95.542038
H   28.244055   75.337433   44.057182
H   53.305763   45.855293   73.740646
H   85.425468   54.005184   25.030859
H   52.620220    0.567814   91.185951
H   56.923695   32.227104   44.490913
H   56.344837   15.707544   90.717888
H   22.732679   68.961815   65.732651
H   67.289696   60.794941   45.599873
H   43.394016   79.066399   74.230392
H    1.066320   80.566986   44.473118
H   49.828110   33.454651   88.222954
H   30.979687   75.000679   18.923525
H   83.610107   31.556032   17.156691
H   96.036148   10.457369   25.427185
H   21.395243   32.588264   43.731331
H   79.068939   90.467392   62.710037
H   45.961441   22.175058   59.939323
H   28.755207   79.516388    7.464890
H   84.221878   86.771797   60.486057
H   28.850376    9.570322    6.036077
H    8.127445   72.541206   98.133957
H   78.591003   52.532562   73.548439
H   10.672759    3.183422   79.396393
H   80.079384   44.139595   62.903637
H   29.191256   16.609648   62.367138
H   44.008171   30.432941   60.571217
H   55.287537    7.947266   36.426888
H   70.374817   47.430176   97.576447
H   59.349159   61.089584   38.472416
H   11.202170   86.011749    1.148220
H   78.282959   20.664715   11.131657
H   86.747551   24.460562   85.887871
H   57.344704   31.452467   51.040752
H   72.327202   34.087250   63.103092
H   46.181641   55.454552   25.960127
H   24.722439   21.645235   23.456203
H   56.173264   47.719578   39.701897
H    2.716612    1.445176   50.859291
H   49.511730   49.703594   97.970512
H   89.434341   57.119278   21.712984
H   42.697826   40.204895   17.913486
H   85.963509   81.079323   83.126801
H   56.212219   25.409081   56.395264
H    5.856866   81.563728   78.863747
H   98.993706   59.827042   17.671385
H   87.732666   47.251282   75.220772
H   96.647652   84.263298   12.049719
H   91.810135   28.059479   94.784218
H    4.806810   80.021286   75.149002
H   24.343401   43.968967   71.133934
H   11.939827   86.780014   71.629105
H   38.022587   32.969997   59.914108
H   22.462620   72.911316   61.446953
H   56.965897   17.780298   65.489258
H    5.915822   80.964394   23.662933
H   14.112994   33.045105   24.451553
H   14.676315   45.359432   79.697769
H   61.833420   27.998837    7.561152
