100
TIME:    4.319, STEP:  4319
H   25.245651   25.946930   95.191849
H   81.195473   38.904411   50.433235
H   53.994385   84.630470   72.646385
H   82.201538   54.707756    3.423184
H   56.486160   18.944399   48.598297
H   61.050434   96.528999    6.470758
H   26.611961   52.978153   28.204432
H   80.421410   62.249241   11.637104
H   47.458672   71.039124   28.220922
H   56.813332   78.397804   76.818085
H   98.512177   40.026737   23.721882
H   90.995583   40.179665   85.498222
H   68.462814    0.411029   95.864502
H   41.229042   91.763496   85.917755
H   33.037163   84.237091   43.162289
H   27.867298   33.973625   74.526306
H   76.798805   67.637756   66.563957
H   93.430016   84.667580   49.808582
H   12.538250   59.542664   90.904526
H   76.155235   14.097342   10.390177
H    7.981125   26.247166   40.018326
H   76.447083   49.817520   51.475525
H   28.079155   59.496071    8.777871
H   17.759636   88.481293   86.306458
H   75.112091   43.641716   68.436623
H   26.857882   98.973160   84.279106
H   89.646675   62.943546   85.664162
H   68.116272   58.036026    9.533471
H    5.083125   40.945187   53.010445
H   66.602875   83.944237   26.736374
H   86.035210    9.349011   67.673409
H   38.461407   33.182289   99.432610
H   74.582619   52.483498   86.886581
H   60.589645   77.912201   89.799171
H   73.412384   32.436943   87.725586
H   48.080723   23.711765    5.849787
H   94.047501   46.365219   48.785572
H   85.479790   79.912712   27.221500
H   62.768421   87.314629   25.768839
H   56.391220    7.852563   77.844849
H   40.078247    4.380825   44.099468
H   43.454025    5.696168    5.712002
H   48.442913   89.399704   13.440105
H    3.562107   85.152039    3.024056
H   82.014046   61.483490   25.699446
H   22.366657   45.295124    0.705019
H   75.476852   59.719872   66.925667
H   56.470074   39.854263   35.813148
H   91.279953   74.749542   72.188965
H   16.459949   96.471062   81.587624
H   43.215107   52.672081   98.955658
H   15.027937   62.969349   90.527130
H   98.460869   47.051758   52.029285
H   76.673027   36.737122   22.401611
H   96.909332   37.095119   37.082073
H   98.970261    7.990554   45.597855
H   70.056519   64.923775   66.760277
H    4.454146   69.011360    2.306842
H   30.906988   21.257286   79.911644
H   74.008560   59.761890   40.767952
H   32.147003   77.717796   77.652168
H   45.624870   87.741440   99.931717
H   67.278526   12.562051   37.303673
H   39.617508   65.290604    9.877300
H    3.750017   15.892269   97.778328
H   36.022011   27.562416    1.556744
H   41.047409   97.682587   75.583359
H   82.022804   64.545486   72.675774
H   72.161728   39.450531   89.352142
H   17.889669   65.377441   92.638550
H   84.884224    1.534729   10.337765
H   17.846130    8.185754   72.839622
H   25.384897    4.672260   51.011017
H   35.132153   76.065437   46.533379
H   70.406258   34.796604   28.807909
H   27.761217   84.380455    5.316198
H   59.092987   52.204815   67.432610
H   34.894802   68.312920   52.963219
H   68.622978   40.832462   65.874184
H   87.713196   73.732857   48.835472
H   95.389725   73.963699   38.124935
H   65.385979   72.433914   25.625685
H   91.059242   79.350250   41.263470
H   47.289894   81.745064   68.942184
H   42.030304   78.729240   29.073700
H   51.892101   67.700676   41.707764
H   55.610970   89.326431   29.490217
H   25.476492   59.504631   50.827209
H   45.315781   53.696968   92.866951
H   84.481094   31.580368   78.610184
H    0.773848    6.645849   24.671183
H   97.858688   20.311790   15.823324
H   62.309776   57.109749   52.999432
H   64.676529   75.212921   18.027014
H   81.917229   62.860947   15.333158
H   50.653290   25.178463   44.367073
H   19.780495   15.538953   88.799072
H   22.719511   53.011383   86.924095
H    2.966036   55.467808   83.275429
H    7.481553   67.798256   81.677429
