100
TIME:    3.631, STEP:  3631
H   71.772614   89.040192   95.821732
H    0.266650    1.610978    7.042276
H   42.168335   35.132179   80.719383
H   82.086060   83.052483   41.135792
H   62.648514   63.798168   67.253326
H   71.717903   97.274361   38.336090
H   62.667896    6.519293   74.401863
H   34.496857    2.730322   74.808113
H   64.371025   37.187622   71.529472
H   75.615334   68.519142   49.877342
H   62.508255   12.343561   89.993187
H   17.254616    5.693975   34.469978
H   12.294934   42.026932   64.236198
H   75.295204   93.884102   33.560947
H   24.667919   45.691544   76.234444
H   55.530045   94.148430   31.637045
H   32.123817   22.133556    3.932607
H   78.732750   18.125328   73.663269
H    1.822745   30.678286   54.656124
H   94.694786   28.707998   63.547997
H   48.808029   94.739319   58.689102
H   10.487854   48.904190   10.065048
H   37.264946   65.091530   28.463852
H   81.682243   80.229828   37.403965
H   99.719513   98.202026   63.355568
H   30.008226   19.418314   48.836800
H   48.974072   91.540421   72.016701
H   26.168921   25.922501   86.793053
H   90.123047   78.524826   85.533394
H   40.221283    0.972133   72.042755
H   58.959766   47.653973   22.105782
H   95.020882   52.189003   63.124199
H   26.119852    2.821515   24.906111
H   31.520512   40.963203   18.782722
H   90.513702   84.444267   45.830154
H   88.260506   69.720306    8.153260
H   28.059483   71.560532   94.574028
H   13.917056   92.499870   78.670647
H   91.806244    2.305433   92.441689
H   21.194160   72.261841   23.713411
H   87.098999   80.771606   27.890486
H    5.287561   74.820572   73.388824
H   42.516766   85.273972   63.743336
H   47.494797   73.625183   35.754036
H   41.693180   88.630951   66.825256
H   31.242756   32.172565   97.911446
H   70.101852   22.304153   60.319473
H   56.433331   32.768082   93.243660
H   71.165695   31.730080   99.630859
H    2.030383   86.004509   29.707508
H   43.267597   19.093956   91.701508
H   81.592834   26.809242   35.693783
H   84.194023   43.062500   91.986427
H   92.609062   47.964783   92.043182
H   51.687851   76.797546   31.229757
H   98.109421    8.714911   69.018997
H   26.441652   84.775581    1.325667
H   55.684319   33.984818   20.029186
H   76.645561   92.186829   32.728985
H   19.410828    6.877982   60.336311
H   88.746620    9.714648   31.294506
H   70.043327   94.145248   31.063126
H   20.568480   59.510307   84.481895
H   92.373589   61.546242   28.558575
H   76.444160   70.842873   33.708744
H   78.287148   61.765053   60.876862
H   96.246140   73.894012   42.367535
H   29.547905   25.198355   39.785397
H   37.871109   88.885834   32.502613
H    3.950889   30.770929   94.087280
H    6.731064   48.346825   18.591854
H   74.573959   31.019455   22.466160
H   70.243439   38.701679   68.651604
H   50.280834   19.602142   87.412773
H   37.236668   33.815037   76.652260
H   11.494857   40.285835   51.608585
H   96.625923   11.835300   55.265369
H    2.571314   13.297918   14.965576
H   35.632133   42.853336   58.196144
H   21.454384   11.201199    8.107338
H   81.931229   66.846024   97.005646
H   13.762027   67.940750   83.155273
H   47.532352   67.865387   75.734741
H   99.957672   22.871609   31.781105
H   75.529572   21.762928   95.767792
H   67.727173   42.427399   93.930740
H    9.661016   39.349648   96.683304
H   14.403677   14.587513   57.981628
H   31.038261   92.004341   98.493904
H   45.309635   59.888351   54.015388
H   72.618073   69.493813   10.141885
H   46.951904   68.575737    2.713059
H   18.208302   36.465340   99.795250
H   98.177101   33.479347   71.637276
H   93.811516   24.486591   99.524376
H   93.827271   52.346748   79.902962
H   74.390747   76.056313   28.367563
H   20.194731   47.153473   97.936546
H   35.740837   52.502110   40.902931
H   64.744804   85.455971   47.954445
