100
TIME:    2.364, STEP:  2364
H   57.454498    5.230526   96.981705
H   35.511330   32.916725   27.120321
H   20.389837   43.979294   95.586372
H   81.873398   35.254234   10.583704
H   73.996918   62.242542    1.607748
H   91.360115   98.646996   12.860376
H   29.073605   20.965775   75.320732
H   34.080559   93.118408   91.139076
H   95.516304   59.004440   51.282383
H   10.239100   50.326897    0.259647
H   80.361511   61.363178   12.037382
H   65.615509   42.185654   24.656652
H   92.888603   18.682304   90.166679
H   38.029808   97.789345   37.141819
H    9.254776   58.865143   37.136894
H    6.472696    4.964976   36.809341
H   34.005371   38.332100   88.589874
H   51.662308   79.739235   17.589523
H   82.084404   77.526779   87.907471
H   28.828491   55.610302   77.284767
H   23.993515   20.873463   93.080811
H   89.019333   47.222229   17.961807
H   54.181221   75.395958   64.713486
H   99.400269   65.034180   31.502762
H   45.033195   98.687866   54.003799
H   35.819416   57.167385   67.593300
H   58.229294   44.208965   46.877369
H   33.074715   66.783241   44.913616
H   62.573685   63.572517   45.424217
H   91.640175   32.331223   71.319878
H    9.095860   34.038631   22.348888
H   15.021429   87.197594   80.416756
H   36.874470   95.521248   10.764745
H   77.985619   57.076248   72.159622
H   22.009369   80.219788   68.678337
H   78.094925   70.189873   12.513368
H    6.537731   17.961283   94.739380
H   66.280693   15.686153   89.262642
H   45.288605   29.907961   15.223112
H   40.531025   90.873329   24.028406
H   73.687035   37.297886   98.039352
H   19.158356   17.954727   13.864258
H   31.603354   77.676147   72.226768
H   28.401346   52.392387   11.873729
H   51.595539   38.619061   58.405006
H   47.588711    8.006458   92.768898
H   60.199711   53.400299   48.149422
H   56.365665   19.722933   14.848808
H   34.131683   36.662701   50.174278
H   75.466270   66.729622   18.323795
H   43.364262   41.414879   78.342484
H   20.018538   44.377781   18.869251
H   57.918396   35.716003   65.573723
H   21.949154   68.639137   36.132477
H   52.563019   65.746918   20.465406
H   96.524124   10.047499   12.150665
H   46.118374   21.335060   80.823463
H   50.028412   53.637100   52.664871
H   76.720039   38.654064   29.997332
H    3.020109    9.492147   96.372810
H    8.823286   68.633369   30.079792
H   15.010006    5.939512   88.390686
H   34.581173   45.946510   71.378586
H    5.370529   54.654068   62.961445
H   26.152611   72.036072   15.715547
H   56.120949   24.751472   85.963478
H   97.899910   30.092962   81.195877
H   17.068321   52.737122   79.215469
H   74.724602   79.924370   11.965722
H   78.277649   67.046944   96.755219
H   46.965279   34.553535   33.792904
H   79.044128   73.068481   29.702330
H   52.854645    1.374783    1.131176
H   78.166313   99.780228   62.709007
H   76.148582   32.007412   80.604965
H   81.545189   59.084122   36.862476
H   81.591156   21.650763   32.858555
H   43.045345   96.144157   44.995586
H   74.874023   46.574917   44.054138
H   83.590279   80.206207   17.260353
H   57.143795   53.738323   21.279419
H   18.696548   59.666275   89.100929
H   67.372940   46.715210   55.059177
H   12.791459   14.452120   47.504547
H   37.222809    1.013687   18.589020
H   96.881165   95.887611    5.946527
H   25.040945   31.470871   36.268036
H   94.010895   16.026764   71.162239
H    4.741570   62.548363    8.859278
H   57.329884   12.012802    8.726008
H   20.767273    1.081533   83.385086
H   53.202030   73.297173   78.566643
H   36.962284   98.467636    1.800354
H   75.717812   56.627911   86.210793
H   15.718731   37.977150   70.409050
H   89.178268    2.380127   45.345367
H   74.959244    3.345748    1.233486
H   15.544936   36.365723   18.210518
H   96.098106   47.040569   47.028725
H   86.053696   17.981937   69.998688
