100
TIME:    6.118, STEP:  6118
H    3.587354   60.970390   93.544815
H   31.510025   36.389584   63.866474
H   84.926727   14.057475   51.528797
H   82.503494   80.588287    4.813704
H   40.372681   63.142105   99.822083
H   33.146938   94.580009   84.632530
H   32.326275   74.455025   68.888649
H   39.023560   17.887127   46.459896
H    3.235802   98.072525   14.980218
H    7.656000    4.229096   47.262180
H   31.173569   12.413429   50.432343
H   22.333397   30.354160   57.442986
H   53.664597   91.622398   17.106377
H   52.153847   86.218483   22.822353
H   54.915222   23.542908   56.686993
H   55.532562   76.626320   25.193748
H   32.134041   86.629005   30.334021
H   31.897558   97.137360   87.443886
H   40.556316   35.011253   85.682159
H   27.687828   75.888710   32.874474
H    1.225933   47.151600   91.190544
H   48.918961   52.205719   98.274094
H    4.058489   44.864922   57.307480
H   50.608021   10.017305   52.698162
H   10.769961    0.970879   81.722694
H   18.657026   45.796722   15.108536
H   34.516678   88.159012   21.356947
H   16.322979   42.007256   69.003586
H   44.201134    4.165089   67.971039
H   35.583698   39.419426   69.752090
H   56.838860   70.667717   25.342247
H   52.051456   83.477661   32.890129
H    1.300143   20.860209   48.954712
H   36.602425   13.044457   14.009802
H   28.694912   96.445229   97.271484
H    4.465191   64.616768    0.191203
H   66.593941   80.480591   90.539894
H   11.125301   46.992397   54.170841
H   86.829407   48.115227   51.432472
H   86.946106   39.436649   19.385550
H   17.129692   66.103981   86.483131
H   84.622192   65.594879   92.294548
H   63.938755    0.187842   43.383423
H   88.688950   15.333273   78.921104
H   25.964909   90.507492   79.643906
H   99.153404   79.608322    8.016249
H   89.531540   57.555801   84.192070
H   56.566151   58.383392   47.125080
H   43.864029   25.757248    0.423353
H   54.190823   23.851263   55.762123
H   43.081501   78.989929   17.920410
H    2.456453   96.034515   72.427467
H   35.778141   57.482971   47.545528
H   35.012627    7.379754    1.787660
H   53.670860   94.756882   52.385761
H    1.215721    6.098181   84.355637
H   84.106377   13.014565   37.860237
H   70.496735   99.117561   55.970078
H   72.789734   97.269035   41.803215
H   55.292831   98.037064   89.600121
H   45.629078   94.057022   37.388279
H   81.778145   70.996597   18.533134
H   89.411491   89.801430   13.940826
H   63.153091   75.090454   61.039143
H   75.157898   72.210495   65.311729
H   25.507782   38.129082    7.927488
H   96.709457   59.875210   62.439346
H   57.753670   67.432228   58.678379
H   61.824230   10.185860   76.523010
H   54.332947   55.861000   88.850372
H   27.759094   79.132187   88.758858
H   69.509171   48.480530    4.552707
H    8.085850   15.685715    4.880348
H   95.530052   62.209530   39.642235
H   57.143047   37.363232   65.183975
H   70.293831   99.678642   84.265442
H   22.429348   96.278175   99.247810
H   19.415096   50.680016   52.315102
H   54.891880   35.548229   85.940544
H   99.493088   75.743080   93.850090
H   30.592081   92.575180   45.647221
H    0.385878   84.146881   75.170219
H    4.851061    9.433280   12.590355
H   71.057304   35.689964    4.632965
H   54.433556   66.202034   54.680878
H   10.482929   33.777870   66.635681
H   75.762108   58.524345   15.273352
H   54.423271   15.504766   32.143646
H   82.648544   53.531548   78.153450
H   25.425024   57.566601   42.920456
H   74.396416    3.786748   62.662762
H   30.968943   55.611252   50.096870
H   77.629120   11.088773   92.118912
H   38.548466   84.345161   39.326294
H   50.815742    1.715639   56.670994
H   99.243271   54.138214   51.446335
H   76.984398   18.779779   85.337372
H   26.468172   89.177322   56.061028
H   17.265442   63.222591   32.590622
H   19.224207   21.637470    8.373660
