100
TIME:    9.824, STEP:  9824
H   52.964752   21.114170   90.151871
H   29.160748   37.212620   97.539055
H   48.636387   80.682060    8.020782
H   83.125534   27.902445    1.674859
H    7.167803   60.193909   99.337776
H   75.678711   90.565025   51.649918
H   38.094219   24.701509   58.702770
H   47.739273   38.502491    6.186018
H   12.135201   41.754471   81.702110
H    6.428534   57.443089   92.370064
H   86.450409   61.531036   93.449547
H   80.886940   16.116611   93.646431
H   17.305923   67.353996   48.825371
H   68.655838   74.795570    4.849957
H   99.928291   92.504730   78.463158
H    6.520474   52.486008   17.562874
H   34.119453   31.751984   67.705826
H   11.147658   16.802849   58.976768
H   98.281433   90.481384   80.935654
H   27.840244   97.189667   85.196220
H   81.306137   78.208199   90.602142
H    4.216797   57.125488   82.673950
H   54.577644   14.732073   51.274765
H    6.266243   54.351776   77.459244
H   78.222153    7.067444    9.087944
H    1.283524   36.491989   66.400612
H   14.944099   34.104450   94.887131
H    3.621586   14.990819   91.500877
H   24.784695   40.401859   92.786880
H   77.689079   47.695602   64.368385
H    2.690732    2.993377   32.135483
H   86.050766   81.084137   89.807213
H   62.348129   49.711548   82.820457
H   93.188980   73.411736   57.881691
H   36.463661   15.855293   22.752867
H   26.620554   54.892910   88.542000
H   22.048759   44.759529   82.558182
H   57.946056   79.172035   15.694037
H   30.397602   67.368736   92.294197
H   37.882534   92.492493   10.966123
H   63.850601   93.268799   73.793663
H   72.300468   80.131790   81.485100
H   95.832489   22.420971   11.071016
H   52.056591   77.544716   41.271404
H    4.477841   44.270786   96.769043
H   51.320389   50.288586   23.072439
H   18.498074   59.104900   19.772436
H   56.787228   96.554016   76.430634
H   52.193420   18.827015   52.591934
H   31.988600   80.269157   96.638466
H   45.983631   21.436890   52.139664
H   82.575211   52.145340   29.151697
H   12.642126   78.971619   32.309433
H   49.187561   46.918205   65.322212
H   58.593483   19.532961   83.894012
H    5.831539    2.199829   58.194641
H   19.051460    6.078883   90.331520
H   94.540970   49.131691   60.511620
H   65.078957   53.871262   57.297482
H   10.736973   82.893555   84.192665
H   79.409729   21.710073   48.446499
H   50.244957   36.501663   50.851593
H   41.031261   36.942146   59.823746
H   17.636196   95.278473   60.421036
H   22.253624   76.216774   10.434686
H   97.846344   53.893425   27.056406
H   99.370033   88.003235   41.365429
H    1.754749   79.382210   35.846619
H   46.529762   43.896347   44.089252
H   29.545303   42.077724   81.007080
H   10.067225   26.971256   44.311287
H   64.283455   25.405663   76.140228
H   66.449249   32.375111    9.860287
H   13.947094   27.659676   19.444815
H   35.702003   42.780567   46.163822
H   57.905983   37.198956   34.898949
H   59.011665   75.508591   64.976402
H   93.521416    8.362297   56.994156
H   32.609840   24.662533   27.293879
H   17.747471   73.859261   74.574898
H    3.136562   30.916147   67.150536
H   78.480339    8.188821   65.126839
H   39.263039   71.410316   65.532074
H   26.024971   52.820389   66.145836
H   73.984756   34.369690   95.427765
H   25.190914   69.907738   23.991749
H   23.277666   89.067009   91.989326
H   14.024714   18.951197   93.723114
H   59.560795   47.187340   47.843147
H   97.764862    5.088699   75.399536
H   26.061880    3.898381   40.927025
H    5.175416   34.337723   20.713106
H   15.190701   22.283316   78.709587
H   93.557350    8.944051   94.065895
H   86.738998   69.756325   41.829903
H    5.343733    7.793636   60.026550
H   82.819603   31.456806   72.200729
H   19.314714   72.550903   81.657677
H   40.720207   79.224602   22.174374
H   49.417015   26.535767   51.363438
