100
TIME:    6.871, STEP:  6871
H   52.664383   91.917366   92.855423
H   10.716236   77.193993   11.343402
H   97.875809   68.231255   42.687344
H   82.629883   49.565643   63.541561
H   33.628128   23.498289   79.404587
H   21.467487   93.764229   59.205120
H   92.861389   25.300205   27.774302
H   79.839241   83.030609   77.321831
H   84.725578   25.674866   67.583153
H   87.088081   15.042248   76.745186
H   61.131348   42.712040   77.899544
H   93.592804   68.098373    3.844207
H    5.613968   46.085789   42.284355
H   14.870501   83.897530   80.126457
H   64.061165   56.281242   20.476673
H   25.256119   10.766281   62.687988
H   71.582130   36.433826   98.882576
H   48.000607   60.496170   61.339493
H   52.281727   66.602173   25.353115
H    7.402466   59.896290   84.142265
H   56.541840   72.188141   70.750069
H   21.109802   53.205338   34.149139
H   94.004448   38.740822   35.763977
H   80.643349   19.025362   96.772888
H   83.838326   41.255745   87.283791
H   15.209911   23.543308   44.291443
H   69.585777   56.859299   36.299519
H   52.786125   77.154762   93.890640
H   60.574196   72.482918   32.375427
H   64.457733   20.782860   29.612961
H   86.472618   38.191513   65.767357
H   99.596527   62.669880   63.181175
H   54.341854   65.767281   16.790899
H   68.417870   44.036514   82.287399
H    9.955698   39.438911   43.089142
H   69.921974   23.595097   97.824196
H   38.817360   52.904907   49.873203
H   80.000755   33.210300    7.309728
H   55.046810   31.707747   78.461517
H   16.022388   68.944077   78.631027
H   65.667419   91.944695    4.223211
H   21.163651   68.547775   30.737228
H   70.419098    4.705030   97.774284
H   40.606647   27.972128   52.545074
H   60.646454   60.795315   44.080509
H   89.432976   93.970657   11.075426
H   95.414352   98.505692   91.419197
H   56.606991   66.139053   93.716492
H   65.873360   63.392612   70.388779
H   69.997314   35.314449    3.111094
H   43.029797    6.292534   25.857037
H   39.057636   26.161377   22.998055
H   51.398617   61.849121    3.811196
H   17.576752   95.094482   35.013748
H   93.715286   60.747437   58.791363
H    2.153581    5.306098   58.721741
H   31.843424   91.286430    9.476759
H   14.427039   28.006605   36.575180
H   32.178131   29.089008   83.997368
H    5.604595   55.916996   68.183006
H   93.128197   59.036720   78.678329
H   55.052711   63.987778   84.463089
H   40.532757   38.418739   62.305359
H   14.858524   79.192337   40.592922
H    5.043648   12.068516   35.435703
H   79.251129    0.695673   52.450989
H   36.295731   85.910339   98.793289
H    5.738752   10.496852   94.676132
H   99.350471   56.080093   29.295429
H   69.587852   93.732841   87.264771
H    3.846414   27.898865   79.727821
H    7.436736   23.481850   59.692009
H   58.989258   78.440170   85.575989
H   78.950172   14.554249   94.902618
H   93.449944   38.437534   22.266663
H   88.091637   47.940006   33.598572
H   90.816010   31.098194   12.599669
H   54.792400    1.441892   93.898552
H   91.003090   33.336430   94.339638
H   62.564651   34.724251   28.978294
H   45.327835    0.365394   90.653030
H   56.890259   89.030212   12.176910
H   52.482262   22.025427   84.302673
H   22.863846    0.125147   35.857296
H   17.768675   19.099586   81.686043
H   93.153061   61.439728   18.926483
H   26.053347    3.774856   51.179192
H   66.533592   55.250324   24.336281
H   98.274765   11.606266   71.994881
H   58.850857   26.584171   69.836716
H    5.212326   44.445564   78.564743
H   86.683319   12.244409   64.442146
H   25.897694   33.683598   50.349556
H   11.322686   30.028406   90.100021
H   37.797722   34.267441   73.974731
H   61.438019   24.403170   12.553003
H   17.214815   61.992294   42.032059
H   25.014704   26.436802   40.946106
H   81.394554   66.472847   69.519783
H   65.993965    2.314596   35.835331
