100
TIME:    0.323, STEP:   323
H   95.479652   92.400642   98.850296
H   92.285362   22.257275   98.375305
H   85.314026   97.142128   19.547318
H   81.530823   19.342630   22.458185
H   92.277969   98.647400   56.947243
H   23.007656    0.862105   10.732967
H   36.042225   83.148262   15.711787
H   94.499130   16.546070   78.537621
H   45.688042   55.238281   79.755882
H   66.013512   21.024075   20.337679
H   70.210358   79.239197    8.636829
H   43.513279   39.880882   69.937599
H   22.716698   42.165527   93.025536
H   39.088840    4.081384   81.820641
H   84.431236   41.171097   35.245869
H   88.536545   83.485542    6.227945
H   98.097847    3.357565    2.763491
H    8.046983   78.993088   88.348434
H   50.293922   91.902695   80.379196
H   83.906075   98.759613   38.223732
H   45.109268   24.061569   48.475395
H   93.319069   44.526260   91.752510
H   81.431511   91.995277   23.108982
H   89.031311   40.555637   83.086243
H   18.031103   60.558193   38.943619
H   45.177944   17.985146   58.897980
H   34.225857   29.049904    6.375732
H    5.287628   71.515732   77.451828
H   18.194641   78.397179   41.903381
H   13.379067   82.845474    9.066433
H   28.807650   51.007500   83.852440
H   86.151855   43.586700   69.362358
H   93.109192   44.849693   26.895346
H   91.749413   44.121613   58.143654
H   72.743156   34.503952   44.396332
H    0.638291    9.858923   19.532934
H   10.779260   92.706398   33.916332
H   50.638969   53.042408   45.234013
H   36.199306   73.612892   11.168210
H   32.770741   81.945274   63.448242
H   13.168758   67.261803   49.949718
H    2.591774   26.353670   17.975073
H   14.023461   65.436874   24.804062
H   58.733582   18.184740   12.313152
H   28.637943   19.147850   83.747253
H   73.826210   69.276176   84.584938
H   39.490650   43.165386   30.383245
H   56.256664   98.708435   88.563370
H   74.470024    5.699089   31.588961
H   32.664127   35.665661   61.072601
H   43.519978   38.460335   56.822544
H   20.829924   33.766693   52.858551
H   15.579271   23.881592   84.111031
H   69.207230    1.931897   46.069111
H   15.045021   86.820786    3.146952
H   93.970383   12.192486   81.631119
H   16.729187   80.226830   86.707359
H    2.007825   46.383400    5.234970
H   15.751732   52.416367   86.686768
H   37.703667   52.615494   54.422691
H   80.075607   63.548035   89.212280
H   87.447235   24.938919   80.740524
H   96.141350   85.127098   11.399011
H   65.220406   43.551521   18.370634
H   45.142899   35.046505   25.641214
H   81.503029   26.215839   65.284142
H   61.653801   59.527477   82.656418
H   58.053978   36.010422   81.643867
H   73.001640   26.577599   39.974842
H   36.929688   64.391258    1.051544
H   11.775446   73.427589   58.273533
H   47.333843   40.805840   80.270607
H   85.931274    2.330975   53.467251
H   23.081474   28.939291   84.011757
H   77.744186   29.103289   25.883774
H   33.294483   28.273462   74.195053
H   96.280975   98.548698   96.748596
H   47.155457   29.600227   32.278240
H   77.035591   52.555515   21.290020
H   83.684952   91.362999   93.094513
H   17.202656   32.623241   99.293991
H   65.559105   46.336990   59.771400
H   38.233128   12.648602   60.664001
H   72.390045   39.801121   33.927681
H   36.602722   28.679909   16.441097
H   43.859303   20.918163   64.213356
H   88.727150   79.868187   38.945049
H   61.154831   79.433922   92.381432
H   62.386177   76.188179   25.558147
H   37.778328   95.996338   35.758755
H   37.241062   90.872787   40.282909
H    2.185393   19.798754   39.678543
H    6.008602   37.309212   43.903160
H   78.447273   32.824608   48.596325
H   51.007557   20.796955   23.508820
H   20.600098   82.976494   50.765617
H   36.963799   86.216805   18.612999
H    8.051106   18.987823   50.867439
H   93.325218   38.242619   17.995983
H   59.300884   70.407509   66.576523
