100
TIME:    4.120, STEP:  4120
H   38.703033   44.196289   95.374039
H   86.691536   28.120287   37.884903
H   50.573769   70.313377   74.981453
H   82.168137   62.906303   14.331353
H   58.268585    2.993670   53.994156
H   64.136971   96.744591   86.763512
H   37.041210   39.540127   12.642373
H   96.062416   45.033810   29.909145
H   52.350471   90.172104   40.747768
H   62.251701   75.540459   69.026428
H   17.022659   32.019489   42.890110
H   98.589867   30.204767   99.663490
H   81.161453   12.445427   15.638260
H   51.082481   92.376869   70.774734
H   30.616638    2.012689   52.728779
H   35.868866   51.378838   91.044861
H   92.801155   54.475636   48.448204
H   89.178917   94.344902   56.709026
H    9.438744   51.193810   80.419495
H   81.517693   18.323389   96.841423
H   19.790070   46.058804   45.418739
H   57.368759   49.553345   68.422226
H   30.736092   61.114525   14.471686
H   36.248878   86.094604    1.085194
H   82.229645   59.423920   66.966957
H   27.765036    4.855976    2.992908
H    6.806250   71.215164   81.716713
H   84.908112   48.747375    2.955275
H    0.755804   22.890545   62.417519
H   58.972153   88.869438   10.916973
H   78.204079   91.504097   83.417656
H   25.896376   38.679871   17.854988
H   60.565769   67.043510   68.959091
H   52.181580   96.149414   98.182945
H   78.358841   47.479759   75.606918
H   30.781790    8.125223    6.475875
H   74.960068   53.652817   33.105091
H   93.705666   83.553474   13.179134
H   71.167603   91.650749   45.053398
H   75.134911   26.482410   62.188480
H   53.678726   97.552628   39.411114
H   61.339005   96.764984   96.362930
H   46.728809   88.206360   99.066277
H   16.269159   81.817963   83.566284
H   99.276543   69.335388    8.670001
H   24.934017   41.499500   99.896217
H   73.922165   48.897789   65.015709
H   56.459446   37.804626   23.500145
H   85.462021   91.231659   80.126373
H   12.286281   93.443672   95.506935
H   43.230289   71.884010   96.857437
H    5.357447   81.434387    3.590534
H   94.334267   45.897888   63.587719
H   81.282433   39.984657   13.620814
H   12.753572   19.654985   35.389225
H   98.721268    8.200064   52.372284
H   57.440655   70.665794   47.833778
H   19.271965   87.804253    7.432863
H   15.212843   12.848604   95.188271
H   87.141418   44.465527   46.427986
H   19.593367   86.973045   93.168678
H   52.687767   89.593704    8.936204
H   53.767994   26.141937   50.949699
H   25.952082   64.206573   15.280750
H   95.851646   31.786064   79.246574
H   48.246956   37.455330   89.790359
H   57.013321   90.801880   65.975876
H   95.769035   53.164688   63.162426
H   62.244255   53.749405    1.832336
H   13.857958   55.367828   93.057587
H   91.203178   15.074860   12.725212
H   34.254509   14.790519   58.269901
H   38.360245   14.515072   56.113853
H   39.513821   88.657799   58.357506
H   60.811428   34.512691   13.721824
H   23.056162   71.627159   18.706135
H   41.024300   69.453171   63.913303
H   25.545422   81.324318   41.972610
H   59.080048   41.416988   63.654266
H   97.472504   84.570122   65.979546
H   91.496933   71.904953   26.231337
H   50.454132   71.134293   42.265991
H   78.469917   76.028320   22.309643
H   33.599838   64.716377   87.118668
H   51.719772   91.175850   48.364578
H   56.472660   60.391075   27.888657
H   42.320213    3.795371   20.001158
H   22.273745   75.437141   52.896584
H   41.186142   64.777153   94.494514
H    2.074697   39.768288   71.495667
H   92.629944   95.900230   20.468668
H   83.134705    5.346676   12.031368
H   49.553444   51.138474   37.610455
H   45.441875   63.142731    4.609532
H   85.357582   80.685295   10.760570
H   34.216721   33.036263   54.645622
H   35.575775    4.119059    0.243646
H   21.989233   51.317017   90.109383
H   12.445885   54.609997   99.942772
H   95.120766   72.905647    0.846899
