100
TIME:    6.227, STEP:  6227
H   96.216141   50.974510   93.445023
H   28.500034   42.296467   70.738869
H   86.801163   21.899086   50.248959
H   82.521790   76.097626   98.838989
H   39.396378   71.878937   96.866562
H   31.456287   94.461922   95.426750
H   26.613594   81.814720   77.412590
H   30.456375   27.316685   36.451542
H    0.556334   87.592651    8.118861
H    4.678442    5.794279   51.529972
H   21.034653   16.799139   39.933342
H   18.172882   35.817799   49.684120
H   46.709061   85.031105    6.275566
H   46.756737   85.882515   31.117603
H   56.239143   13.806488   51.445393
H   51.150009   67.092812   16.145481
H   23.368935   93.839012   40.256721
H   34.228542   91.833389   83.665077
H   42.253620   39.584244   91.425217
H   24.751434   73.573524   40.295708
H   94.757721   36.299999   88.231697
H   59.368896   52.350418   88.991730
H    2.603028   43.978432   54.188965
H   40.479916   11.321260   44.602497
H    6.871610   92.327087   82.527687
H   18.160143   42.574257    4.858633
H   25.117363   83.628433   23.519949
H    7.126056   47.095009   72.606094
H   46.571205   14.054316   62.818420
H   39.763340   36.721703   78.417404
H   61.129105   80.442390   16.718513
H   58.933811   80.465591   22.799446
H    8.978134   12.885542   58.774292
H   41.207848    3.055392    9.418100
H   25.983444   88.198799    3.905652
H   13.940241   73.154015   99.848488
H   77.048866   76.488892   99.128700
H    6.620295   44.997379   61.862347
H   82.228973   45.740166   40.869438
H   76.679123   29.232151   27.961466
H    9.680599   69.844536   89.051125
H   75.436295   66.022324   97.859642
H   64.876862    0.841720   51.256218
H   81.728424   17.162802   89.578941
H   16.509987   86.206436   88.971176
H   97.746330   81.687332    8.459078
H   90.383102   63.483475   85.238228
H   56.571972   59.506058   53.869389
H   47.049904   16.730186   96.075668
H   56.478565   25.510729   48.140472
H   43.074017   68.466812   19.069271
H    7.753355   85.920547   65.272346
H   38.039272   58.114990   41.214527
H   32.488708    5.601161    6.597243
H   44.992241    4.308965   53.313000
H    1.351480    5.983523   80.645020
H   91.017006    9.869231   48.227013
H   62.380280   88.823967   53.162582
H   81.386856    1.874711   33.435616
H   48.100288    6.415216   86.499901
H   52.504780   88.987564   28.890118
H   77.909523   69.982040   13.600993
H   96.811104   82.363564    6.466370
H   70.637619   75.684219   58.079464
H   79.483902   63.505215   75.462288
H   18.812122   32.710350   14.372626
H   87.964310   63.643208   67.701736
H   50.224327   73.665932   63.889210
H   67.256599    2.353824   69.687225
H   56.540855   61.343765   88.620850
H   24.297543   71.715942   87.451576
H   60.521519   44.863052   12.533195
H    0.978627   10.294426    2.085363
H   93.130043   55.311375   33.165703
H   62.397953   37.518742   73.446793
H   72.870140    6.664607   76.930695
H   32.327724   86.837914    1.178277
H   24.536114   43.552338   58.335083
H   60.118511   35.228062   87.156349
H   94.147537   69.805428   84.459618
H   32.725143   93.702835   52.162006
H    8.566494   84.853745   66.052513
H   11.745843   11.255948   22.971199
H   78.556709   45.017235   94.677330
H   49.126259   59.383980   44.114517
H    7.973981   37.782043   74.204941
H   83.041969   50.599159   20.470877
H   56.176292    6.782488   31.013496
H   84.910507   47.462502   77.261971
H   15.787976   53.081760   46.816521
H   78.857140    9.672352   64.964645
H   39.033840   63.809204   52.173386
H   84.616257   14.359471    0.548049
H   49.082394   90.958076   46.676010
H   48.931328   91.952469   59.175785
H    8.246306   49.833832   45.816376
H   68.332390   25.034689   79.068741
H   26.257776   94.571106   53.873077
H   12.073064   63.692448   23.460442
H   25.994295   18.840370   97.873268
