100
TIME:    9.499, STEP:  9499
H   74.943512   50.917946   90.449417
H   38.136337   19.600353   77.048027
H   43.049953   57.299873   11.836195
H   83.070984   41.292412   19.489618
H   10.080038   34.143723    8.149517
H   80.717163   90.917122   19.463322
H   55.126270    2.754994   33.287350
H   73.283630   10.386713   36.027237
H   20.124321   73.001801    2.158577
H   15.306574   52.776569   79.644997
H   16.681183   48.453873   24.755484
H   93.289665   99.826591   16.779861
H   38.030029   87.026772   81.122864
H   84.748138   75.797310   80.118431
H   95.980843   21.535316   94.094261
H   19.588924   80.911606   44.541077
H   60.253944   10.256571   38.119797
H    4.197470   32.617439   70.242752
H   93.218185   76.848801   63.804028
H   36.595547    4.091990   63.068687
H    0.592114   10.562019   99.424393
H   73.058731   56.694046   10.350647
H   58.916862   17.374334   60.573090
H   36.463665   50.463837    1.595325
H   89.846298   32.842400    6.688976
H    2.816662   46.072983   96.983421
H   42.969734   47.615536   88.440292
H   31.043924   99.820923   80.759453
H   17.717968   10.915792    8.149685
H   65.226845   55.739273   38.531441
H   89.900810   73.848877   57.848450
H   65.529984   90.065079   19.894035
H   39.454414   73.490463   53.541893
H   79.457214    3.196083   71.573784
H   44.551964   40.462379    2.978768
H   98.369690   29.435461   89.563576
H   90.876770   56.661385   56.949360
H   71.379158   85.118004   92.759758
H   44.116970   74.450340   23.788563
H   68.492981   22.918152   85.396439
H   86.062439   82.115768   66.136803
H   99.689751   78.853500   64.899986
H   93.035553   20.470802   87.595482
H   72.806923   72.089699    9.495929
H   32.688316   57.123432   68.969193
H   55.513313   44.089703   21.752077
H   15.956542   41.428165   16.651918
H   56.767391   93.206619   56.321461
H   42.694252   45.742565   65.557220
H   25.167349   75.319969   19.362480
H   44.173557   52.676781   51.529694
H   66.780457   82.302643   50.485939
H    5.900841   77.087158   51.186272
H   56.713005   52.221970   50.980476
H   84.470100   91.051620   81.131790
H    5.426752    2.541698   69.258408
H   98.448212   15.457109   59.421410
H   18.740854   79.823601   68.882591
H   39.445339   40.137016   82.247414
H   32.182781   57.913929   93.436440
H   58.908169   36.823795   73.784096
H   61.779839   39.526718   65.557564
H   18.947369   59.088402   82.095520
H   95.318909   93.508072   69.244293
H    9.353747    2.172933   80.168968
H   17.810978   70.050194    7.839604
H   25.446205   76.765900   25.674316
H   24.205017   60.795479   20.309738
H   30.330843   67.248779   64.473602
H   22.944733   25.754824   81.696396
H   20.388721   49.086391   48.209145
H   91.047752   36.196678   52.317898
H   87.639511   48.450054   18.194065
H   21.100605   48.227833   38.754768
H   20.047052   42.302013   21.522024
H   50.221848   16.369160   56.766129
H   29.494957    3.636939   59.211861
H   78.252327   29.612068   39.044670
H   17.025846   25.617161   23.666292
H   33.684929   91.563271    2.573968
H   96.774315   27.553873   47.725716
H   54.092461    6.079003   92.317619
H   18.705866   65.975136   34.579937
H    3.665601   25.009407   95.831047
H   89.809265   54.699547   26.932222
H   32.671726   57.969917    1.422472
H    1.571582   12.697400   76.492119
H    8.798435   44.957375   97.090347
H   52.816410   65.283119   50.501228
H   26.499395   18.460930   63.780396
H   12.761406   86.348541   34.063622
H   81.128708    9.895252   14.521661
H   94.357834   12.531233   53.576836
H   63.981239   89.365036   69.334831
H   92.357666   98.866280   34.361488
H   78.500031   20.626955   76.813126
H    8.616662   12.806741   90.891602
H   19.942041   56.469685   88.183861
H   56.202538   77.821175   49.397388
H   29.230972   34.875317   82.671280
