100
TIME:    9.307, STEP:  9307
H   87.927887   68.525368   90.625198
H   43.439072    9.195808   64.942558
H   39.749660   43.486397   14.090223
H   83.038757   49.202568   30.013788
H   11.800497   18.754074   13.355206
H   83.693726   91.125130    0.448900
H   65.188454   89.790840   18.272701
H   88.374451   93.776138   53.656631
H   24.844048   91.461761   14.244345
H   20.551447   50.019733   72.127419
H   34.540558   40.728287   43.250313
H    0.616943   90.202568   30.446121
H   50.273193   98.648842    0.203903
H   94.254974   76.389107   65.508080
H   93.648811   38.685707    3.328169
H   27.309383   97.704575   60.478577
H   75.693398   97.557350   20.641279
H    0.091447   41.960213   76.899002
H   90.226974   68.795090   53.689281
H   41.767910    8.169382   49.996422
H   11.986008   29.676138    4.636080
H   54.651501   56.439163   26.701233
H   61.480339   18.935125   66.066254
H   54.303997   48.166962   15.855131
H   96.713486   48.069450    5.271739
H    3.722394   51.733139   15.051481
H   59.526863   55.597469   84.631699
H   47.243675   90.859009   74.413750
H   13.542949   93.496117   17.225124
H   57.864540   60.491226   23.268188
H   82.345146   56.631733   73.038879
H   53.406940   95.370743   37.668449
H   25.929512   87.538315   36.245018
H   71.344910   20.791565   79.662651
H   49.330284   54.999489   91.297806
H   81.679260   14.396642   90.167091
H   72.460754   63.692635   41.820454
H   79.315681   88.630699   79.209953
H   52.221951   78.633934   42.394684
H   86.577942   40.893250   70.290970
H   99.184509   75.526901   61.613369
H   15.870770   78.100571   55.098583
H   91.383209   19.318703   73.726341
H   85.064735   68.867043   90.723213
H   49.342125   64.698006   52.538486
H   57.990364   40.427593   20.972048
H   14.455443   30.985365   14.808176
H   56.755672   91.229080   44.441578
H   37.082436   61.643444   73.215424
H   21.137564   72.396141   32.787083
H   43.104221   71.131783   51.169342
H   57.449398    0.118080   63.089455
H    1.918344   75.973877   62.338127
H   61.158806   55.355270   42.507820
H   99.757210   74.226425   79.499954
H    5.187616    2.743663   75.794540
H   86.275360   20.997185   41.160667
H   33.037048   97.955437   73.827904
H   24.302158   32.023247   96.986671
H   44.852215   43.155628   98.897377
H   46.795376   45.752018   88.751869
H   68.594292   41.313828   74.244087
H    5.912426   72.189964   95.261536
H   82.135315   92.462173   74.456207
H    1.732872   17.508312   62.289082
H   29.605167   79.595116   96.486839
H   40.850815   70.127228   16.404053
H   37.467712   49.815010   11.131027
H   20.761019   81.044678   76.514618
H   19.045319   16.111757   82.103622
H   26.486134   62.151333   50.511879
H    6.858819   42.571678   38.245144
H    0.158067   57.946636   23.117405
H   25.326679   60.378712   50.162971
H   10.798760   42.019299    6.964633
H   45.682297    4.063738   69.685226
H   12.056808   20.255543   55.806099
H   69.231819   42.165779   28.440666
H    7.818982   26.181126   21.523226
H   43.100945    2.022356   19.114738
H   93.015526   25.567545   36.250130
H   39.685722    4.832604    8.380636
H    6.561557   62.764194   16.294292
H   90.455849    8.579153   13.367235
H   99.157898   66.710129   45.544327
H   37.091160   50.916695   88.089432
H   88.748329   26.657448   67.336845
H    5.710775   60.320656   99.079605
H   48.832035   75.973549   52.071541
H   43.475231   26.360832   56.917603
H    4.903618   75.980377   30.008934
H   66.922653   95.455154   10.863946
H   82.050217    6.770002   38.729179
H   46.508583   77.798630   54.724483
H   95.677002   16.064838   29.949720
H   62.641632   28.208254   86.730118
H   23.856342    1.788553    1.933661
H   20.312647   46.970173   92.039330
H   65.349022   76.992073   65.479774
H   17.305679   39.801586    1.166475
