100
TIME:    4.825, STEP:  4825
H   91.027748   79.544289   94.728592
H   67.220558   66.325027   82.337830
H   62.692032   21.033646   66.708977
H   82.286469   33.861198   75.689217
H   51.953964   59.502533   34.878174
H   53.202091   95.980812   56.582767
H    0.092875   87.144592   67.774292
H   40.650810    6.026416   65.179436
H   35.020226   22.389435   96.369820
H   42.985115   85.663216   96.630035
H   51.445282   60.386875   74.980499
H   71.685493   65.542976   49.480003
H   36.173813   69.812889   45.585693
H   16.175789   90.203865   24.424540
H   39.190758   39.038666   18.838490
H    7.520683   89.716812   32.524353
H   36.109413    1.107967   12.627134
H    4.247385   60.048176   32.266064
H   20.419407   80.768356   17.562525
H   62.520462    3.351713   44.841042
H   77.954384   75.873749   26.285816
H   24.957794   50.489243    8.384918
H   21.323326   55.380806   94.300507
H   70.746704   94.549286   48.727036
H   57.014191    3.512093   72.173561
H   24.551249   84.017685   36.697124
H   46.014008   41.907825   95.701393
H   25.422626   81.654404   26.260530
H   16.086433   86.853935   29.091187
H   86.005615   71.420860   66.962257
H    5.948358   54.721981   27.640297
H   70.410683   19.203514   52.589622
H   10.223339   15.462420   32.471062
H   81.968948   31.540192   68.481636
H   60.834961   94.186966   18.537575
H   92.066956   63.343388    4.257824
H   42.579185   27.834511   88.656540
H   64.563744   70.655296   62.927021
H   41.408421   76.289116   76.734055
H    8.732729   60.483788   17.654913
H    5.497569   21.741476   56.020611
H   97.976952   28.405985   29.482233
H   52.801388   92.434036   49.988121
H   71.250122   93.630310   52.498627
H   38.122738   41.520981   68.998802
H   15.838572   54.946308    2.761995
H   79.429977   87.237328   71.782143
H   56.497097   45.065903   67.121590
H    6.071890   32.843113   52.004112
H   27.072392    4.170935   46.196747
H   43.176502    3.820535    4.290061
H   39.617821   16.015066   57.310837
H    8.956378   49.985718   22.640116
H   64.952629   28.479568   44.729759
H   56.621429   81.441902   41.386501
H   99.603378    7.458291   28.372421
H    2.136860   50.323463   14.885223
H   66.776016   21.225981   89.273666
H   70.813362   42.637558   41.065277
H   40.618168   98.652725   26.376106
H   64.065399   54.185963   38.200653
H   27.666414   83.031662   77.039108
H    1.629119   78.033615    2.605726
H   74.364479   68.046982   96.138962
H   23.834234   75.479980   44.900578
H    4.938526    2.408077   31.474981
H    0.449236   15.175956    0.012436
H   47.070076   93.483597   96.865501
H   97.378342    3.092597   57.618271
H   28.141157   90.825684   91.573059
H   68.816933   67.106979    4.267467
H   76.123260   91.392441    9.885268
H   92.391891   79.641670   38.035965
H   23.991657   44.044262   16.468418
H   94.804451   35.518513   67.165741
H   39.724823   16.809553   71.267227
H    5.033281    8.347015   76.381187
H   58.667599   35.225300   80.906853
H   92.889915   39.346180   71.518196
H   62.898071   46.174297    5.243212
H    5.289762   79.198502   68.367882
H    3.350148   75.738480   83.313744
H   23.066362   87.810364   89.452255
H   82.101791   25.044901   22.728043
H   17.391615   47.079010   80.022820
H   40.245052   86.284996   76.845795
H   89.405556   52.536118   53.618179
H   33.620544   18.993441   45.565384
H   55.816269   25.523676   88.728523
H   39.743832   10.760834   96.700363
H   21.481590   33.968189   35.356976
H   35.300037   58.365295   25.464445
H   94.745476   72.295097   92.129196
H   13.581874    5.904119   52.142811
H   73.169395   17.535126   26.959030
H   92.446777    5.198127   18.231667
H   79.616692   44.577419   59.698822
H   24.576399   57.319672   78.824821
H   78.861298   57.648975   40.893044
H   38.909924   54.814358   32.932629
