100
TIME:    5.947, STEP:  5947
H   15.151234   76.652000   93.701370
H   36.232704   27.122824   53.083736
H   81.986099    1.755485   53.536617
H   82.474792   87.633270   14.187119
H   41.904312   49.435699    4.458355
H   35.799244   94.765266   67.698479
H   41.287754   62.908955   55.516224
H   52.463821    3.093731   62.161076
H    7.439323   14.513703   25.744070
H   12.327215    1.773622   40.566837
H   47.079575    5.533097   66.903481
H   28.860443   21.782764   69.615150
H   64.576492    1.963001   34.097832
H   60.620872   86.745552    9.808704
H   52.835686   38.817184   64.907349
H   62.407944   91.582558   39.388397
H   45.884804   75.317894   14.767218
H   28.240690    5.457821   93.372108
H   37.893574   27.837114   76.672409
H   32.294464   79.520790   21.231989
H   11.373299   64.175659   95.832405
H   32.525024   51.978714   12.836258
H    6.341749   46.255653   62.199829
H   66.496864    7.971652   65.398560
H   16.885677   14.532471   80.459816
H   19.436541   50.852150   31.188709
H   49.262871   95.266617   17.963614
H   30.751495   34.025551   63.351791
H   40.482948   88.650574   76.054504
H   29.026943   43.651634   56.157883
H   50.108292   55.333874   38.871223
H   41.254368   88.203018   48.720467
H   89.255730   33.370995   33.549683
H   29.377167   28.715569   21.213297
H   32.945892    9.371721   86.859238
H   89.600418   51.223473    0.728975
H   50.193275   86.742798   77.065712
H   18.192890   50.122196   42.104351
H   94.046600   51.841240   68.003838
H    3.052882   55.445721    5.931589
H   28.815884   60.236610   82.454445
H   99.033096   64.924301   83.563988
H   62.465832   99.162338   31.032475
H   99.608673   12.463095   62.201149
H   40.797474   97.255020   65.011215
H    1.360354   76.346756    7.321536
H   88.195602   48.256424   82.550850
H   56.557018   56.622147   36.544559
H   38.866005   39.918968    7.244878
H   50.604328   21.248495   67.721970
H   43.093243   95.498672   16.118069
H   94.146172   11.901955   83.652473
H   32.230862   56.491455   57.477650
H   38.972168   10.170024   94.241844
H   67.285942   79.771942   50.931103
H    1.002741    6.278056   90.176880
H   73.264931   17.948860   21.596764
H   83.229889   15.266771   60.374496
H   59.302963   90.044014   54.930367
H   66.576843   84.894257   94.463768
H   34.842426    2.009775   50.720257
H   87.847267   72.588242   26.270874
H   77.802925    1.470057   25.666809
H   51.410149   74.158951   65.681839
H   68.371231   85.867325   49.387455
H   36.012230   46.630028   97.816383
H   10.429333   53.963947   54.183670
H   69.565758   57.652744   50.503590
H   53.301105   22.472832   87.247040
H   50.869164   47.259598   89.210449
H   33.189461   90.766846   90.809731
H   83.609573   54.155655   92.033249
H   19.235840   24.143608    9.265198
H   99.295204   73.032494   49.802666
H   48.899113   37.119267   52.221207
H   66.252098   88.719780   95.772247
H    6.903628   11.099237   96.223686
H   11.381206   61.861969   42.870911
H   46.692303   36.050510   84.033180
H    7.878794   85.058113    8.581811
H   27.245714   90.806107   35.426777
H   87.550995   83.037949   89.474144
H   94.035194    6.573784   96.305237
H   59.292702   21.056786   20.250851
H   62.759682   76.897362   71.257462
H   14.418987   27.496563   54.760971
H   64.341408   70.957436    7.119419
H   51.673119   29.188341   33.916634
H   79.099960   63.052711   79.552010
H   40.544056   64.602341   36.808281
H   67.398399   94.552902   59.051556
H   18.316675   42.750244   46.839218
H   66.667648    5.957677   78.895218
H   22.022369   73.970772   27.796007
H   53.772026   17.033192   52.741459
H   85.119385   60.890961   60.278656
H   90.557732    8.966798   95.171646
H   26.798243   80.715515   59.493500
H   25.411530   62.485477   46.914116
H    8.603016   26.025581   24.847027
