100
TIME:    9.798, STEP:  9798
H   54.723053   23.498409   90.175674
H   29.878727   35.803638   95.899773
H   48.189472   78.811485    8.326015
H   83.121170   28.973711    3.100044
H    7.400782   58.109894    0.042758
H   76.081787   90.593193   49.074951
H   39.456783   22.945787   56.669537
H   49.782822   36.253239    8.573282
H   12.774330   44.254257   83.338615
H    7.138777   57.069767   91.352058
H   88.868866   60.484863   95.954094
H   81.879158   14.813412   95.497169
H   18.963852   68.927818   51.409065
H   69.943222   74.875710    2.871281
H   99.612495   94.827179   79.713646
H    7.565928   54.760056   19.721176
H   36.210213   30.032364   65.338943
H   10.591643   18.068016   59.877937
H   97.876373   89.390778   79.564957
H   28.540668   97.741913   83.426018
H   82.849014   80.796455   91.307922
H    1.724152   57.090973   84.888092
H   54.924782   14.943480   52.018631
H    8.682022   54.040741   79.390121
H   79.152084    9.129440    8.896027
H    1.406175   37.258469   68.847237
H   17.186111   35.185337   94.371384
H    5.815346   13.777226   90.641563
H   24.219357   38.042912   94.015945
H   76.692101   48.339096   62.301430
H    1.667421    0.661937   34.192520
H   84.409103   81.802612   92.214165
H   60.516632   51.613861   80.478172
H   92.090439   75.794487   58.977058
H   37.110725   17.823860   21.170912
H   24.360491   52.856304   88.623726
H   19.555023   45.711678   80.509476
H   59.020596   79.647713   13.859366
H   31.495152   67.935265   94.813820
H   40.331341   94.926422    8.920491
H   65.627548   92.376556   73.181114
H   74.491600   80.029434   80.158440
H   95.608734   22.264957    9.193052
H   53.716702   77.108315   38.729366
H    6.735251   45.299900   94.545380
H   51.655823   49.792675   22.966810
H   18.294750   57.690762   19.522795
H   56.785641   96.286224   74.821899
H   51.433487   20.980259   53.629181
H   31.442900   79.873222   98.456276
H   45.838825   23.936081   52.090866
H   81.311630   54.558044   30.858522
H   12.102823   78.820862   33.819580
H   49.789597   47.342506   64.174873
H   60.663612   17.254450   83.673035
H    5.799156    2.227179   59.079742
H   17.403252    6.829122   87.858711
H   96.477005   51.587044   61.181297
H   63.028271   52.772522   59.293621
H   12.452675   80.895233   84.932167
H   77.769653   22.919203   50.473583
H   51.167747   36.743668   52.028091
H   39.264034   38.712944   61.605057
H   15.850815   95.136841   61.127014
H   21.221634   78.293251    8.013402
H   99.443573   55.185966   25.519083
H    1.456097   87.104248   40.110180
H    3.550788   77.895271   34.603668
H   45.233849   45.764542   45.720005
H   29.017258   40.771893   81.062225
H   10.892965   28.740467   44.623116
H   66.424599   26.268944   74.234344
H   68.144470   33.661106   10.526989
H   14.519375   29.305206   20.989576
H   34.449532   42.742283   44.192478
H   57.291252   35.532497   36.648323
H   56.650337   77.758835   64.515404
H   92.299889   10.062279   55.558197
H   31.363119   24.738903   27.003672
H   19.022457   75.275581   76.814827
H    2.627609   30.647165   65.596550
H   76.529228    8.020013   67.302101
H   37.618401   70.975502   63.056019
H   24.236221   50.595535   68.520653
H   75.250717   35.996078   97.948181
H   25.789379   68.952812   22.186237
H   21.541185   90.957420   90.749550
H   13.606611   21.031740   93.992493
H   59.021244   48.635002   48.055794
H    0.063513    6.158478   74.470001
H   24.997854    2.494520   40.377953
H    3.251680   32.382248   20.217791
H   13.524095   21.503149   76.698967
H   91.191261    7.377677   92.087410
H   87.188492   72.085121   41.232430
H    3.196217    8.820314   61.369476
H   84.883385   29.964809   73.695999
H   19.364901   71.264313   82.179771
H   41.958794   79.112328   24.352215
H   47.802132   27.202965   53.868183
