100
TIME:    2.309, STEP:  2309
H   61.173981   10.274243   97.032059
H   37.041252   29.934656   23.650930
H   19.444441   40.022308   96.231743
H   81.864166   37.520164   13.598545
H   74.489548   57.834049    3.098961
H   92.212776   98.706581    7.413437
H   31.956161   17.251747   71.019661
H   38.403450   88.359955   96.188744
H   96.868309   64.292450   54.744640
H   11.741957   49.537178   98.106133
H   85.477478   59.150120   17.335253
H   67.714432   39.428772   28.571466
H   96.387367   22.009865   95.633446
H   40.753120   97.958870   32.956142
H    8.585697   63.778015   39.780899
H    8.684250    9.775567   41.374771
H   38.427292   34.694862   83.582169
H   50.486961   82.413872   19.496471
H   81.227547   75.219727   85.009598
H   30.310158   56.778095   73.540108
H   27.257294   26.349041   94.573807
H   83.746429   47.149216   22.645569
H   54.915550   75.843269   66.287048
H    4.510408   64.374542   35.587730
H   47.000359    3.049911   53.598030
H   36.071606   58.805988   72.748711
H   62.972221   46.495457   45.785946
H   37.715256   64.216026   43.095417
H   61.377777   58.582436   48.024162
H   89.531181   33.692459   66.947472
H    6.932081   29.106333   26.700943
H   11.548786   88.717445   85.508385
H   33.000149   99.545372    5.809910
H   75.661781   62.116684   74.476746
H   23.376690   84.377350   65.328957
H   73.312973   65.869499   12.702405
H    1.262572   19.975653   90.405579
H   68.554176   16.692814   85.381187
H   47.610344   31.106176   20.552874
H   45.711193   96.022026   19.701109
H   77.445961   35.410870   96.743576
H   24.101440   15.486144   11.280363
H   31.129606   77.346329   68.253838
H   31.913328   51.470490    6.496131
H   56.366161   40.788898   53.698586
H   48.298283    6.957417   92.545662
H   59.769604   50.409271   47.621124
H   56.362728   19.156660   11.445717
H   32.524132   41.217640   52.368454
H   74.313164   65.892906   22.170422
H   43.368458   46.724709   77.762573
H   17.345789   49.481579   22.480053
H   56.777458   35.397095   68.767845
H   23.222691   69.536278   33.705414
H   56.941719   60.925251   19.998793
H   96.455307   10.105301   14.022995
H   42.631779   22.922050   75.592522
H   54.123871   58.831116   54.081497
H   72.382042   36.330227   34.219833
H    6.649434    5.264510   97.937141
H    5.353790   71.191353   34.367855
H   16.961853    6.451550   90.879013
H   30.850426   49.697044   75.151779
H    1.593732   54.354881   64.454735
H   23.969555   76.428619   10.593495
H   59.499702   27.485695   82.711449
H    2.312699   28.191469   78.540543
H   20.867531   49.591675   76.586151
H   71.983665   83.876320   15.415286
H   77.163147   64.280830   96.871033
H   48.711723   38.295677   34.452961
H   83.579346   74.893814   25.675478
H   56.440689    4.095158    2.541481
H   79.376488    3.260775   65.977821
H   73.496605   31.929132   76.435654
H   80.245216   55.558922   40.563076
H   76.597717   26.417818   31.885859
H   40.461346   99.740273   41.957981
H   72.236313   46.736469   43.440239
H   86.287575   83.201431   21.998665
H   56.067478   53.169323   17.992352
H   14.569654   59.307083   93.699928
H   63.893467   45.797089   49.820683
H    9.007880    9.745699   52.528198
H   39.900803    4.454042   23.920670
H   98.146729   93.867577    2.127110
H   21.367620   35.469818   33.645432
H   93.125504   20.430222   71.734596
H    3.600056   65.610725    9.309212
H   62.192822   14.275795    6.759966
H   18.516449   98.111572   82.223587
H   49.132168   69.161430   77.518440
H   33.433308   96.819382   97.545395
H   70.402107   53.291538   82.502220
H   16.669792   42.903870   69.145164
H   84.635498    4.551958   48.186172
H   79.324936    0.189472    4.396632
H   15.342996   35.897430   19.090664
H   98.718193   46.803486   51.635696
H   82.638016   19.394577   75.295929
