100
TIME:    4.409, STEP:  4409
H   19.159569   17.693451   95.109451
H   78.709816   43.781654   56.108360
H   55.541397   91.105537   71.590324
H   82.216644   50.999870   98.489998
H   55.680038   26.158297   46.157959
H   59.654484   96.431496   15.383932
H   21.895050   59.055653   35.242550
H   73.347588   70.035645    3.373497
H   45.246300   62.386017   22.555754
H   54.353767   79.690071   80.341949
H   90.140594   43.648106   15.052639
H   87.560982   44.690926   79.091820
H   62.719711   94.968651   86.921631
H   36.772713   91.486092   92.766357
H   34.131676   76.197845   38.835735
H   24.248333   26.101921   67.055603
H   69.561562   73.590973   74.757011
H   95.353081   80.290230   46.687939
H   13.940037   63.318527   95.646500
H   73.730003   12.186064   16.517801
H    2.640407   17.287128   37.575928
H   85.075470   49.936996   43.811188
H   26.877525   58.764107    6.202779
H    9.397667   89.560699   79.622650
H   71.893097   36.504036   69.101295
H   26.447611   96.313095   75.815514
H   81.886208   59.202015   87.449440
H   60.522289   62.236923   12.508534
H    7.040236   49.110775   48.755989
H   70.053955   81.716759   33.890968
H   89.576927   17.419357   60.552895
H   44.144085   30.695946   91.100853
H   80.921730   45.898567   94.994492
H   64.392288   69.664215   86.007515
H   71.175293   25.633659   93.206390
H   55.904362   30.760868    5.566631
H    2.679879   43.069321   55.877247
H   81.759544   78.266136   33.572285
H   58.969212   85.353569   17.047411
H   47.914581   99.426949   84.925537
H   33.927277    7.468755   46.219830
H   35.365341    9.735581    9.940147
H   49.218136   89.939407   19.940855
H   97.815063   86.659912   11.823762
H   74.206886   57.932846   33.401142
H   21.205540   47.011738    1.070885
H   76.179977   64.614281   67.789467
H   56.474880   40.781235   41.381844
H   93.911179   67.295319   68.599182
H   18.347538   97.840233   75.292458
H   43.208241   43.983269   99.904602
H   19.401525   54.617680   84.619232
H    0.327265   47.573608   46.801853
H   74.588371   35.268387   26.372826
H   89.743500   44.982616   37.847683
H   99.082870    7.895883   42.534042
H   75.762543   62.326881   75.320000
H   97.752579   60.512062   99.988510
H   38.004845   25.060272   73.002617
H   68.069077   66.679581   38.208138
H   37.824188   73.532005   70.634651
H   42.430595   86.903732   95.859909
H   73.388298    6.420522   31.132103
H   45.798004   65.780869    7.433529
H    7.322376    8.704121    6.159774
H   30.493141   23.088234    6.878074
H   33.826645    0.794357   79.928452
H   75.805916   69.692581   76.978294
H   76.646896   32.983704   83.707916
H   19.713057   69.903809   92.449036
H   82.026405   95.411179    9.258015
H   10.425339    5.198755   79.428673
H   19.516481    0.220737   48.703201
H   33.150494   70.370399   41.185783
H   74.745857   34.925007   35.630581
H   29.889132   90.148277   99.260391
H   67.264481   44.403835   69.024254
H   39.123165   62.428181   57.933846
H   72.939232   40.568104   66.878059
H   83.299438   68.831581   41.081871
H   97.150284   74.894791   43.504116
H   72.138451   73.021683   18.099707
H   96.752663   80.853333   49.835400
H   53.481377   89.446480   60.721939
H   37.648132   73.100121   20.349182
H   49.820492   71.006187   47.957611
H   61.621864   82.782700   33.781754
H   26.924971   52.298973   49.891312
H   47.183456   48.685829   92.130867
H   76.524246   27.877289   81.827805
H    4.457093   11.505558   26.571817
H    4.518163   27.080055   17.538221
H   68.078972   59.810326   59.959270
H   73.374954   80.671753   24.095243
H   80.361290   54.799042   17.401047
H   58.086914   21.624729   39.718483
H   12.636897   20.703884   83.623138
H   23.049788   53.777679   85.483513
H   98.678680   55.855762   75.737434
H   13.071697   65.488380   73.007843
