100
TIME:    5.871, STEP:  5871
H   20.290617   83.621605   93.770950
H   38.331703   23.004263   48.291409
H   80.679153   96.287735   54.428982
H   82.462036   90.764374   18.353001
H   42.585037   43.343964    6.518940
H   36.978046   94.847603   60.171940
H   45.270634   57.776844   49.572926
H   58.437271   96.518631   69.138954
H    9.307549   21.820801   30.527990
H   14.403311    0.682284   37.591129
H   54.148911    2.475143   74.224464
H   31.761353   17.973255   75.025002
H   69.426224    6.559055   41.649590
H   64.383995   86.979805    4.024861
H   51.911430   45.605881   68.560303
H   65.463669   98.229774   45.696991
H   51.996254   70.290733    7.848638
H   26.615416    9.155712   96.006874
H   36.710133   24.648607   72.668076
H   34.341858   81.135048   16.057550
H   15.883247   71.741333   97.895454
H   25.238831   51.877823   19.308365
H    7.356531   46.873756   64.374207
H   73.558083    7.062472   71.042664
H   19.603649   20.559845   79.898537
H   19.782991   53.099007   38.335197
H   55.816734   98.425552   16.455465
H   37.163937   30.478127   60.839371
H   38.830421   81.755188   79.647156
H   26.112988   45.532616   50.116013
H   47.116928   48.519085   44.884102
H   36.455662   90.303177   55.756172
H   83.902702   38.931602   26.703001
H   26.165756   35.680534   24.414850
H   34.834991   15.116861   82.231003
H   82.993790   45.270897    0.967984
H   42.904182   89.526001   71.077187
H   21.334103   51.513218   36.741467
H   97.254242   53.497246   75.368889
H   10.211218   62.560863   99.952049
H   34.009857   57.629097   80.663918
H    5.438050   64.626266   79.683739
H   61.811199   98.706589   25.542896
H    4.461442   11.187460   54.770576
H   47.389606    0.253881   58.507793
H    2.341095   74.897171    7.012774
H   87.601852   44.123367   81.821419
H   56.552959   55.839371   31.842108
H   36.644661   46.213066   10.276685
H   49.010365   20.091726   73.037888
H   43.098461    2.835988   15.316905
H   90.452629   18.954185   88.641365
H   30.654293   56.050781   61.891926
H   40.731964   11.410144   90.888084
H   73.337090   73.111969   50.284588
H    0.908074    6.358001   92.764099
H   68.446510   20.141792   14.368521
H   88.889069   22.444246   62.332016
H   53.309219   86.832893   60.764656
H   71.592407   79.053009   96.625389
H   30.048241    5.544008   56.645580
H   90.544655   73.295639   29.709869
H   72.643562    6.656239   30.878357
H   46.191063   73.744949   67.744888
H   65.354935   91.937027   42.310001
H   40.681053   50.408226   93.322670
H   16.527157   51.336720   50.514481
H   74.815575   53.306309   46.870350
H   49.513050   27.933708   92.013275
H   49.329704   43.436752   89.370483
H   35.602730   95.937805   91.721230
H   89.876419   56.677933   86.469162
H   24.191391   27.902672   11.214020
H    0.968291   77.842796   54.318413
H   45.235142   37.010838   46.459976
H   64.455772   83.849174    0.886312
H    0.003258   17.686441   94.879631
H    7.810587   66.831398   38.673492
H   43.048046   36.273746   83.185463
H   11.605820   89.198128   15.129151
H   25.758440   90.019852   30.884428
H   81.846588   82.545090   95.831444
H   89.228371    5.302860   89.067749
H   54.064339   14.553110   27.192043
H   66.460182   81.650841   78.624832
H   16.168346   24.704952   49.483322
H   59.265541   76.483253    3.495389
H   50.450829   35.270084   34.704628
H   77.522812   67.284340   80.173592
H   47.263752   67.728806   34.091759
H   64.288170   90.448837   57.446575
H   12.693445   37.034241   45.391373
H   61.795883    3.677195   73.018021
H   14.677349   69.359932   22.671434
H   55.085930   23.841022   50.994999
H   78.842102   63.892181   64.204132
H   96.590324    4.605431   99.542435
H   26.944941   76.954712   61.019043
H   29.032013   62.157871   53.280113
H    3.882443   27.975853   32.168591
