100
TIME:    7.514, STEP:  7514
H    9.181347   32.950844   92.266739
H   92.958878   12.035689   51.887768
H    8.929735   14.491267   35.137470
H   82.737808   23.074032   28.294361
H   27.867075   75.037575   61.969727
H   11.494752   93.067619   22.882385
H   59.159931   68.720032   78.057739
H   29.300713   38.658138   18.282829
H   68.919411   63.852921   27.106945
H   69.525673   24.274904    1.921396
H    1.321057   68.584702   15.963339
H   69.054489    0.328817   58.074196
H   64.606880    7.173767   78.385643
H   83.033104   81.915627   29.058804
H   71.871040   98.845322   89.554230
H   99.400818   54.527100    9.313076
H   19.876045   78.963074   57.417416
H   61.751286   29.207611   39.052895
H   62.294262   93.573715   59.226978
H   90.077621   46.243725   27.920633
H   18.385300    8.174278   53.298595
H   82.754837   54.058929   79.391785
H   85.419472   33.511345   17.365648
H   20.898642   26.717501   49.019257
H   60.840401   90.261917   92.032509
H   12.178188    4.590134   83.781929
H   14.137926   30.128309   49.059246
H   98.532768    7.167808   15.144755
H   74.555443   30.820536    1.982009
H   89.113785    4.867908   80.730247
H   11.777896   95.850922   14.895241
H   40.195736   44.906338    3.655448
H   99.632332   18.722303   74.717415
H   95.585640   85.109505   55.198120
H   93.952827   90.754814   82.209824
H   25.816666   73.957428   95.803047
H    0.489799   29.357267    0.539266
H   53.423622   21.441525   52.682564
H   27.903568   17.699518   16.149933
H   55.457977    8.747424   29.220030
H   21.722727   14.007604   19.371061
H   66.974937   71.069305   63.561367
H   75.952728    8.562138   44.217213
H   99.550400   38.764671   15.414802
H    4.872349   35.427937   99.102852
H   81.132530    6.233897   13.687712
H    0.438054   33.475655   97.590569
H   56.646236   72.761749   33.501263
H   84.672005   10.141232   44.738091
H   83.497803   45.101322   58.154396
H   42.985645   44.215591   32.634491
H   70.308914   66.496231   80.789398
H   64.736946   65.577454   66.468727
H    2.687950   84.606094   63.388321
H   42.519394   17.095688   64.260986
H    2.954437    4.629725   36.832504
H   72.605927   72.733070   70.631355
H   66.547775   67.282784   20.011759
H   82.886528   56.261684   34.636208
H   63.170868    5.338310   49.894554
H   33.689983   29.136238   28.545540
H   32.231392   58.002823   55.370827
H   84.186317   94.540802   18.212921
H   59.013783   82.695007   23.133533
H   30.565628   60.714649   95.314690
H   39.750427   68.730156   90.470169
H   84.705933    8.141840   29.838800
H   61.322380   47.271416   25.415253
H   31.398819    9.878204   88.967468
H   82.630196   26.053507   85.906525
H   83.428581   84.149384   72.016060
H   54.507130    2.104989    6.819978
H   17.064264   46.638737   69.092834
H   64.792320   73.857544   56.697021
H   24.427816   39.379154   71.018250
H    3.290364   89.149803   90.332649
H   49.214558   75.445259   24.002970
H   85.001709   59.399403   29.409624
H   21.837370   31.447735    1.512576
H   31.030884   99.695732   73.583412
H   57.913918    7.018136   29.084412
H    5.141680   93.200058   58.382145
H   93.151909   32.778721   45.538971
H   67.099403   55.148556   77.128990
H   86.460495   78.874718   19.354708
H   78.357468   85.056305   63.578171
H   68.997856   57.023460   81.839821
H   76.874809    3.795774   17.669434
H   11.620038   75.804893   66.735970
H    1.999695    0.127730   92.824829
H   31.526569   79.165352   92.143723
H   34.258808   60.603897   76.696587
H   67.115387   52.977718    0.073738
H   73.464668   69.038536   33.456203
H   26.680229   76.671677   88.750702
H   14.547225   99.013000   79.340950
H   66.176353   98.892975    5.051461
H   23.773561   58.250698   28.038454
H   50.763359   69.249474   15.660595
H    5.935606   85.812241   73.893372
