200
TIME:    0.641, STEP:   641
H   21.793039   61.144161   22.196428
H   31.538414   38.732304    6.176390
H    9.733076   86.689857   65.099602
H   31.359644   81.660744   34.013645
H   10.952623   93.892532   47.893085
H   76.573364   41.931225   53.680340
H    9.168998   55.019608   57.413029
H   11.874812    6.201991   10.838671
H    3.713376   81.494530   37.937027
H   96.745270   69.281853   80.255424
H   26.170591    3.160303    5.633645
H   32.435989   52.726109   31.848980
H   21.016224    0.316246   44.856651
H   85.450424   54.898777   61.588894
H    0.261556   75.031509   41.991940
H   17.612000    9.444145   45.672588
H    3.071358   26.499311   95.962715
H   27.040236    2.444379   36.381287
H   78.367409   15.184381   48.386921
H   91.332016   74.197777   21.925976
H   62.897491   96.775826    7.469031
H   81.101738   64.141899   55.121727
H   82.997116   59.625862   39.514435
H   17.101854   91.715149   90.328674
H   20.676018   28.831606   31.101597
H   18.329149   80.132591   93.712463
H    6.661339   66.842949   65.204834
H    3.713256   86.671539    1.786419
H   27.957939   44.341133   35.990284
H   74.928673   31.506618   84.754639
H   12.837955   68.202461   16.685080
H   24.634003   72.904770    3.475938
H   17.434219   17.614086   78.077232
H   83.154930   64.015411   45.299355
H   28.744762   73.231369   31.168671
H   19.962490   40.778973   84.074738
H   97.773880   65.773994   88.965370
H   13.080042   55.128166   97.137810
H   38.229164   32.041382   53.345158
H   86.237099   38.039478   48.032318
H   80.623627   86.491356   14.834435
H   33.298752   34.698162   27.940569
H   69.481705   78.570114   65.218323
H   36.387924   82.709953   33.089920
H   42.478291   88.529640   58.834816
H   35.416752    3.402539   47.049034
H   87.530838    6.566156    4.970922
H   80.353317   65.544487   33.231827
H    2.588433   13.534833   61.455444
H   47.767342   19.611132   88.747795
H   68.669067   65.420593   11.976843
H    5.809312   42.599957   72.163078
H   62.991924   82.953125   13.169492
H   16.438494   90.645966   87.641434
H   60.225418   67.466820   77.804611
H    0.165119   62.471058   91.779114
H    4.286082   18.262917   45.353092
H   71.789719   67.901344   98.065620
H   19.719662   82.223831   16.825092
H   33.828758   93.737465   59.581337
H   49.120808    7.552788   30.520483
H   97.143456   17.374823   52.140213
H   82.494759   33.513329   71.356308
H   33.842033   65.724442   12.620708
H   77.794502   82.057114   34.327259
H   23.009422   32.140282   40.071213
H   71.196388   14.703487   94.119942
H   95.095833   92.361626   95.210663
H   30.786114   11.272187   56.904282
H   42.928658   48.619156   50.961178
H   58.289249   83.527763   84.007553
H   20.870481   13.281578   41.957840
H   90.220840   32.595669   86.068108
H   20.929474    0.150437   72.246803
H   84.027817    7.362835   48.757713
H   63.449509    4.919546   60.257107
H   93.732681   44.878475   66.473473
H   11.702792   13.271931   34.255363
H   14.579239   47.558815   26.057056
H   62.233353   88.430534   75.244476
H   60.387470   23.324741   95.180313
H   44.269005   61.378716   75.460594
H    9.435219   18.064934   78.546967
H   11.597481   74.972130    6.920953
H   24.628529    3.564249   46.418102
H   35.964497   71.743973   19.435284
H   53.827587    3.619704    2.690658
H   71.996758    3.619573   26.567034
H   77.959641   73.033241   78.614929
H   21.435642    4.021310   50.453869
H   24.433363   38.354492   78.970863
H   81.262207   92.053757    7.117547
H   66.309151   12.339560   84.309135
H   42.046318   80.026993   80.115402
H   35.285645   51.501907   84.640976
H   52.665718   36.674831   10.207536
H   84.745186    0.409361   15.599191
H   95.871246   34.669590   52.390270
H   27.931526   65.761055   54.302334
H   74.176773    4.443216   27.348307
H   27.757414   91.513611   87.822334
H    5.483343   82.723335   63.652664
H   31.491751   22.514992   36.106316
H   41.144325   68.679855    6.086789
H   24.807171   22.202938   38.088402
H    3.298455    7.140030   25.116558
H   84.654037   35.075935   54.393005
H   62.388306   49.670742    3.235605
H   82.987381   35.027897   18.522984
H   17.248281   22.469358    7.499861
H   52.470455   92.582138    1.077984
H    2.095376   73.429138   95.078827
H   50.129345   84.927986   85.213058
H   61.865807   10.752283   64.613251
H   50.468498   98.666702   12.712391
H   97.673523   94.066887   97.024544
H   16.087902   14.089191   88.854843
H   38.736622   46.734116   25.962914
H   34.091099   72.768852   63.720970
H   81.365051   54.678219   64.301666
H   44.739815   24.424160   74.379761
H    0.986810   17.980633   59.983631
H   41.904060    4.910024   35.925064
H   98.169319   52.888874    0.304824
H   64.917458   99.023575   79.550690
H   62.413525   73.323624   17.788841
H   85.419151   51.062271   55.568146
H   66.657410   90.715019   38.389317
H   97.402512   37.968407   75.751877
H   87.181480   22.248701   73.333221
H   64.796173   70.867767   18.735813
H   66.308228   90.028580   18.783550
H   91.128334    2.104363    0.358173
H   81.257881   23.284210   54.642475
H   24.235806   94.119400   37.990196
H   51.677757    1.112204   77.773926
H   69.556602   87.586357   75.301163
H   94.638741   51.700409   76.862381
H   56.794693   49.941490   71.455246
H   43.665161   89.858070   84.315201
H   70.470024   51.276257   27.863358
H   38.777954   53.194836   55.594849
H   42.114773   64.141731   85.858696
H   39.338402   12.012179   84.769417
H   59.150822   56.467918   62.181080
H   60.632839   68.884277   10.640865
H   54.215355   95.021706   44.410660
H   31.702896   58.491943   66.524315
H   75.905365   48.049854   93.958076
H   22.244669   93.052780   74.990639
H   62.086063   68.120148   48.316933
H   50.667538   96.013885   35.585896
H   94.804359   16.844532   89.388008
H   20.510122   10.347152   66.043167
H   29.513702   64.469177   68.007706
H   75.406174   44.523205   66.398232
H   63.508739   72.909645   85.503952
H   51.747234   30.226006   19.118746
H   94.028717    0.223387   87.733429
H   59.183907   40.582214   93.629791
H   57.894909   68.118149   72.753922
H   24.776344   20.978212   32.070042
H   82.480415   17.086424   37.065315
H   25.994034   31.959831   54.042637
H   55.114655   35.694988   13.764653
H   18.822557   51.680122   60.109772
H   67.994797   91.081062   56.472717
H   23.982513   49.177219   64.594589
H   99.521729   26.866146   35.910053
H   44.772678    7.433598   85.887695
H   71.704285   10.402638   35.942421
H   32.310036   50.552631   58.689518
H   45.420841   60.223434   79.141006
H   66.288086   64.946472   83.542870
H   52.800079   92.019989   80.376419
H   13.287974   49.826897   23.671463
H   31.298279   65.447990    3.682268
H    5.283993    9.583282   70.007736
H   65.346504   12.057449   64.444801
H   67.225250   58.756599   92.041809
H   74.096703   99.559357   32.395817
H   27.315922   30.595547   84.255333
H   47.171677   89.744698   14.011345
H   60.213657   25.962387   91.942650
H   90.708626   70.941765   76.744766
H    7.655211   39.607452   85.961159
H   45.315033   97.655914    8.150352
H   71.156090   84.210274   39.558071
H   95.005379   62.961617   71.126373
H   56.905621   56.091969   70.769363
H   66.976387   17.757313   76.437874
H   44.365604   95.826736   19.516741
H   13.007578   27.063959   66.992523
H   28.097996   79.534782   41.394653
H   71.133484   36.344154   20.504572
H   76.307144   11.367421   24.072477
H   12.126771   96.493660   17.001509
H   17.255520   89.436478   35.657688
H    6.565884   12.733925   60.082939
H    3.825359   21.406935   92.177650
