100
TIME:    5.905, STEP:  5905
H   17.991430   80.503624   93.739822
H   37.392677   24.846777   50.435345
H   81.263840   98.733871   54.029766
H   82.467743   89.363617   16.489346
H   42.280502   46.069214    5.597099
H   36.450687   94.810768   63.539204
H   43.488819   60.072788   52.231770
H   55.764938   99.460220   66.017342
H    8.471764   18.551849   28.387815
H   13.474531    1.170514   38.922367
H   50.986313    3.843167   70.949287
H   30.463577   19.677509   72.604805
H   67.256607    4.502926   38.271172
H   62.700493   86.875008    6.612370
H   52.324913   42.568832   66.926086
H   64.096634   95.256020   42.874725
H   49.262184   72.539726   10.943792
H   27.342512    7.501392   94.828163
H   37.239567   26.075045   74.459488
H   33.425919   80.412880   18.372431
H   13.865639   68.356689   96.972511
H   28.498444   51.922958   16.412949
H    6.902549   46.597237   63.401459
H   70.399117    7.469210   68.517670
H   18.387714   17.863388   80.149635
H   19.628000   52.093834   35.138100
H   52.884743   97.012344   17.130163
H   34.295238   32.065132   61.963348
H   39.569710   84.839966   78.039917
H   27.416599   44.691124   52.818954
H   48.455170   51.567806   42.194130
H   38.602451   89.363632   52.608620
H   86.297478   36.443962   29.765989
H   27.602440   32.564629   22.982576
H   33.989868   12.546667   84.301529
H   85.949387   47.933891    0.861059
H   46.165092   88.280884   73.756264
H   19.928844   50.890919   39.140652
H   95.819244   52.756401   72.073997
H    7.008802   59.377773    2.627108
H   31.686176   58.795616   81.464943
H    2.572668   64.759598   81.419640
H   62.104061   98.910477   27.998760
H    2.290483   11.758139   58.094780
H   44.440495   98.912308   61.417217
H    1.902339   75.545670    7.150904
H   87.867477   45.972366   82.147743
H   56.554775   56.189560   33.945835
H   37.638420   43.397285    8.920350
H   49.723454   20.609228   70.659714
H   43.096127   99.553452   15.675330
H   92.105003   15.799240   86.409492
H   31.359600   56.247925   59.917118
H   39.944687   10.855353   92.388451
H   70.629997   76.091431   50.573818
H    0.950425    6.322236   91.606659
H   70.602119   19.160744   17.602226
H   86.357330   19.233271   61.456284
H   55.990631   88.269447   58.154579
H   69.348602   81.666199   95.658348
H   32.193073    3.962904   53.994778
H   89.337929   72.979172   28.171371
H   74.951698    4.336105   28.546875
H   48.525917   73.930161   66.821945
H   66.704330   89.221634   45.476231
H   38.592369   48.717979   95.333015
H   13.799183   52.512058   52.155960
H   72.466972   55.250767   48.495747
H   51.207706   25.490685   89.881012
H   50.018410   45.146973   89.298889
H   34.523109   93.624481   91.313454
H   87.072830   55.549545   88.958359
H   21.974434   26.220985   10.342178
H    0.219909   75.690819   52.298210
H   46.874287   37.059345   49.037369
H   65.259392   86.028130   98.598480
H    3.090261   14.739534   95.480919
H    9.407969   64.608345   40.551285
H   44.678371   36.173878   83.564705
H    9.938465   87.346016   12.200078
H   26.423800   90.371597   32.916492
H   84.398560   82.765579   92.987389
H   91.378792    5.871431   92.305573
H   56.403343   17.462631   24.086773
H   64.804695   79.524284   75.328903
H   15.385738   25.953831   51.844376
H   61.536324   74.011177    5.116663
H   50.997643   32.549244   34.352104
H   78.228378   65.391243   79.895515
H   44.257572   66.330124   35.307045
H   65.679588   92.284866   58.164593
H   15.209101   39.591400   46.039093
H   63.975357    4.697408   75.647293
H   17.963264   71.422676   24.964006
H   54.498131   20.795414   51.776310
H   81.650360   62.549530   62.447998
H   93.891533    6.556569   97.587082
H   26.879313   78.637177   60.336563
H   27.412323   62.304432   50.432167
H    5.994278   27.103363   28.893154
