100
TIME:    1.858, STEP:  1858
H   91.673737   51.633224   97.444962
H   49.586617    5.482162   95.202385
H   11.692190    7.576319    1.524499
H   81.788467   56.100792   38.319904
H   78.529114   21.684406   15.326906
H   99.204597   99.195183   62.750599
H   55.591412   86.798561   35.750877
H   73.851158   49.341930   37.598808
H    7.954811    7.654268   83.132835
H   24.065386   43.061485   80.447655
H   27.428391   41.003040   60.776653
H   84.925598   16.822344   60.674477
H   25.075359   49.295860   40.458801
H   63.084282   99.348976   98.633751
H    3.099599    4.063439   61.461739
H   26.818939   49.222397   78.811295
H   74.687042    4.869514   42.520782
H   40.849121    4.346019   35.133102
H   74.201317   56.300491   61.247440
H   42.459824   66.354843   42.833900
H   54.020279   71.248230    6.815399
H   40.505070   46.552284   61.050674
H   60.937050   79.511223   79.190262
H   46.413200   58.965519   69.083954
H   63.131096   38.817619   50.270721
H   38.139561   72.244644   15.022223
H    1.860966   65.244461   36.836277
H   75.768753   43.164867   28.187475
H   51.571335   17.664370   69.343712
H   72.237434   44.854599   31.093788
H   89.190193   88.661285   62.386326
H   83.072510    1.179945   27.259682
H    1.231983   32.541618   65.180267
H   56.606316    3.448203   93.477158
H   34.588326   18.469765   37.867310
H   34.100964   30.439249   14.252511
H   58.004662   36.493019   54.868412
H   87.196739   24.947430   53.554394
H   67.193405   40.845177   64.047546
H   88.190529   38.243481   84.218033
H    8.268234   19.935995   86.118210
H   64.634735   95.244881   90.092148
H   27.244879   74.641815   35.678795
H   60.713295   43.910927   62.398487
H   95.488029   58.581570   15.104147
H   54.116772   98.355293   90.715126
H   55.698841   25.969202   43.499702
H   56.338642   14.513224   83.540459
H   19.342207   78.569481   70.359482
H   64.857689   59.029346   53.712757
H   43.402866   90.265312   73.007309
H   95.428886   91.330475   52.088627
H   47.421768   32.782043   94.959648
H   33.665691   76.892830   13.805071
H   92.844299   21.386827   16.172560
H   95.891006   10.579279   29.376099
H   14.041637   35.935371   32.698799
H   87.706635    1.422088   65.697830
H   36.813095   17.273432   68.844696
H   36.409657   70.600800   10.763986
H   76.904617   92.166817   69.530510
H   32.967102   10.650255   11.284890
H    0.259065   80.451424    6.092109
H   70.625916   51.901550   76.697304
H    6.068449   12.448310   68.593964
H   87.205482   49.906319   56.044811
H   38.498154   12.599414   56.766796
H   52.021049   23.798466   55.025745
H   49.505768   16.282288   43.702553
H   68.024231   41.595306   97.820709
H   63.032570   68.982430   39.863651
H   20.766802   89.861542   92.655602
H   85.846252   26.402233   14.106174
H   89.299919   31.801275   92.782097
H   51.752327   31.287413   42.247295
H   69.585442   26.652601   70.908775
H   35.649139   65.509018   23.908232
H   19.272549   29.230211   17.049618
H   50.612747   48.059422   38.408012
H    8.405573    7.762838   60.852821
H   47.241680   48.503521   91.037346
H   80.731155   56.361710   31.413134
H   35.358440   38.268494    6.865207
H   77.984261   71.153053   93.722137
H   61.860352   32.665276   67.640198
H    8.526852   77.303291   70.808388
H   91.246330   68.261185   12.139919
H   85.865295   56.538574   76.427925
H   94.240425   90.722099   12.998671
H    2.065753   32.832336   90.637062
H    0.059518   73.757187   72.699295
H   15.760464   35.244747   68.923180
H    4.497337   83.303696   62.655106
H   26.810398   25.933668   52.093277
H   24.468494   83.301331   58.781303
H   47.384781   22.360666   71.480774
H   15.123242   74.307350   30.334137
H   13.687083   32.057434   26.307861
H   20.201927   44.859402   89.415176
H   54.629440   30.978222   18.733795
