100
TIME:    4.613, STEP:  4613
H    5.364411   98.985817   94.922684
H   73.075661   54.836739   68.971375
H   59.047958    5.782073   69.196587
H   82.250885   42.595329   87.308846
H   53.852829   42.509796   40.626526
H   56.490330   96.210487   35.586887
H   11.203560   72.830322   51.195614
H   57.313591   87.685181   84.643608
H   40.231590   42.772308    9.714514
H   48.778755   82.619209   88.329376
H   71.165009   51.856541   95.402191
H   79.775887   54.916451   64.570641
H   49.702011   82.632652   66.651123
H   26.672112   90.857307    8.290660
H   36.612572   57.975555   29.029118
H   16.045345    8.259222   50.122009
H   53.157143   87.084930   93.327934
H   99.714104   70.363533   39.615673
H   17.117420   71.875717    6.394131
H   68.232811    7.853834   30.407084
H   90.534767   96.977997   32.039825
H    4.633148   50.207809   26.438690
H   24.153831   57.104988    0.365903
H   90.443787   92.007355   64.472687
H   64.596710   20.325294   70.607887
H   25.517664   90.283615   56.631969
H   64.295815   50.721210   91.496071
H   43.310101   71.758957   19.252199
H   11.476356   67.619438   39.112556
H   77.876404   76.667809   50.108620
H   97.604820   35.712307   44.413063
H   57.024822   25.060234   72.215538
H   95.290382   30.972780   13.372426
H   73.011612   50.968781   77.413094
H   66.104553   10.212736    5.628852
H   73.637939   46.738834    4.924812
H   22.246065   35.598618   71.951706
H   73.326988   74.533897   47.967396
H   50.357670   80.908501   97.278671
H   28.700731   80.329964    0.975146
H   19.985748   14.467885   51.025982
H   17.030766   18.891443   19.523706
H   50.975307   91.162735   34.675896
H   84.788025   90.077759   31.769762
H   56.511318   49.884720   50.857685
H   18.573673   50.902729    1.900201
H   77.773727   75.708275   69.747414
H   56.485775   42.882370   54.004219
H   99.875290   50.400333   60.461662
H   22.626072    0.944159   61.023743
H   43.192677   24.288322    2.055174
H   29.314993   35.687229   71.227997
H    4.558828   48.756470   34.953007
H   69.863152   31.939255   35.374535
H   73.500946   62.860943   39.583065
H   99.338120    7.681294   35.589401
H   88.696198   56.440590   94.722038
H   82.562149   41.246986   94.734116
H   54.093315   33.680222   57.341492
H   54.607334   82.358719   32.405891
H   50.692474   64.044212   54.729187
H   35.190239   85.004929   86.630478
H   87.237114   92.499924   17.143211
H   59.807129   66.892136    1.894314
H   15.419545   92.411255   25.157927
H   17.961277   12.946857   18.939886
H   17.458887    7.846965   89.777328
H   61.714302   81.359329   86.730675
H   86.813278   18.325562   70.914337
H   23.846067   80.163574   92.019470
H   75.548683   81.531235    6.810676
H   93.604462   98.428268   94.363853
H    6.214765   90.129097   43.472153
H   28.658733   57.460857   29.064568
H   84.582283   35.216053   51.094936
H   34.712402    3.222246   85.532974
H   85.785599   26.721848   72.631981
H   48.707455   49.088306   69.199883
H   82.722740   39.968891   69.153511
H   73.294922   57.721142   23.507042
H    1.141262   77.005264   55.696926
H   87.444054   74.353958    1.040840
H    9.656237   84.264954   69.263474
H   67.515793    6.903181   42.090317
H   27.714872   60.340332    0.573899
H   45.124844   78.498680   62.123932
H   75.246559   67.950241   43.509232
H   30.208189   35.966148   47.769943
H   51.416855   37.327248   90.462410
H   58.488247   19.483643   89.121078
H   12.805686   22.520954   30.879923
H   19.613401   42.421455   21.425322
H   81.155815   65.932121   75.734909
H   93.091385   93.045105   37.849567
H   76.834496   36.525391   22.088135
H   74.936462   13.569481   29.181679
H   96.444450   32.411098   71.891022
H   23.798414   55.514618   82.218193
H   88.960541   56.735126   58.650826
H   25.742411   60.253780   53.355938
