100
TIME:    6.611, STEP:  6611
H   70.247391   15.760338   93.093460
H   17.896030   63.106037   94.949806
H   93.404678   49.525505   45.740170
H   82.586243   60.277313   77.792114
H   35.956924    2.658203   86.454453
H   25.500233   94.045906   33.455456
H    6.488424    7.743214    7.441958
H    0.274729   60.536411    1.193061
H   91.116875   50.672729   83.948204
H   94.189522   11.308537   66.565132
H   85.315918   32.250309    2.944890
H    3.515662   55.065845   22.350655
H   22.205154   61.810123   68.119316
H   27.743393   84.698921   60.341236
H   60.903206   79.505730   32.979572
H   35.710556   33.506874   84.270020
H   92.489723   19.237629   75.213753
H   42.440456   73.147842   70.352577
H   48.233112   55.694595   11.656062
H   14.406708   65.417274   66.440239
H   71.970612   98.070709   77.807869
H   96.183350   52.860184   56.290558
H   97.475822   40.855385   43.202637
H    4.800369   15.915010   16.082808
H   93.137642   61.875710   85.363625
H   16.409655   31.221718   68.747551
H   92.004906   67.667496   31.140066
H   74.724197   65.018837   85.297501
H   54.920815   48.893444   44.666077
H   54.487949   27.217796    8.944397
H   76.240990   14.877057   86.337730
H   83.179901   69.854263   87.250694
H   36.026882   84.790413   93.368042
H   57.432457   67.864029   93.241074
H   16.426804   59.124580   27.269594
H   47.320354    3.230289   98.641457
H   13.880269   62.426392   29.386145
H   90.748131   37.969059   88.961723
H   66.021942   37.372978    3.657622
H   40.511105   93.283371   58.175137
H   83.436890   83.022270   98.098000
H   43.074966   67.528183   17.463684
H   68.181549    3.145324   78.993156
H   57.207752   23.608114   27.124506
H   83.200172   71.054092   21.831522
H   92.789299   89.011551   10.019136
H   93.383102   84.366287   88.923775
H   56.592480   63.461136   77.629150
H   58.273537   84.926979   80.759262
H   64.538330   31.356920   21.290472
H   43.047649   31.394522   23.116634
H   26.419411   50.288422   40.065315
H   46.005093   60.341553   18.911676
H   23.597107   99.335510   23.541092
H   14.417179   37.961334   56.579601
H    1.829752    5.579593   67.572754
H   15.361318   98.788567   84.748497
H   33.786530   52.560295   43.271957
H   11.673114   18.101612    3.956851
H   22.761421   35.931797   75.578026
H   76.727440   71.128189   98.951157
H   64.280617   66.407822   96.226089
H   22.880835   56.160439   80.134338
H   97.004807   77.776016   47.652706
H   94.724136   32.834316   11.222510
H   95.223419   13.620598   37.077759
H   57.155716   76.920471   86.240799
H   23.698936   95.626869   82.246628
H   86.393318   74.762039   45.602955
H   64.319298   80.656670   87.812256
H   12.102953   45.588989   82.846107
H   28.860239   32.118912   40.648392
H   75.941467   91.299927   92.241028
H   84.674965   31.009556   10.350687
H   80.913322   38.066593    2.556267
H   81.946312   31.275467   51.092316
H   67.202728   53.602619    7.988691
H   42.577129   18.442778   79.540947
H   78.533913   34.100132   91.439552
H   75.315506   48.887459   51.377586
H   40.239792   97.675491   75.113174
H   37.381134   87.344116   33.928455
H   36.035881   17.677282   59.542488
H    4.976350   77.876610   59.603481
H   30.428869   35.363472    6.890087
H   99.135727   51.888489    0.870975
H    8.688540   22.679237   38.781425
H   62.352074   76.055603   27.032051
H   92.879257   26.082048   74.121346
H   81.837753   37.281956   60.542107
H   94.571983   30.407215   73.074020
H   67.445953   92.690063   59.488815
H    9.231330   25.881931   30.243357
H   86.194496   14.254535   72.568588
H   42.292656   57.557388   68.000000
H   39.963104   34.669769   25.982391
H   37.851921   47.071335   56.984756
H   25.516565   13.571889   46.165070
H   93.780418   65.350105   91.296211
H   49.844883    8.986366   60.882786
