200
TIME:    0.628, STEP:   628
H   21.393583   61.187305   21.974136
H   31.422544   38.542519    5.648623
H   10.005542   86.120850   64.459282
H   30.921432   81.508797   34.353592
H   11.090648   93.563049   48.079994
H   76.996277   42.284065   54.065117
H    8.980651   55.028831   57.161404
H   11.583489    5.640669   11.300103
H    3.185461   81.689423   38.254162
H   97.202896   69.463951   80.768196
H   25.717478    2.882608    5.222832
H   32.382233   52.379120   31.229563
H   20.697155   99.884773   45.389458
H   86.064857   54.843929   60.962460
H    0.889196   74.931435   42.023926
H   17.990925    9.979778   45.953026
H    2.459847   25.890457   96.593910
H   27.348915    1.819395   36.612728
H   77.934875   15.655012   48.195549
H   91.290657   74.376305   22.429920
H   62.741478   96.126877    8.064608
H   81.391151   63.644997   55.622696
H   83.386406   59.720383   39.826363
H   16.826500   91.596626   90.369438
H   20.110977   28.308767   31.565472
H   18.339911   79.555649   94.141823
H    6.409584   66.582100   64.682144
H    3.414889   86.135262    1.752212
H   27.410404   44.736275   36.066406
H   75.516129   31.158365   85.204330
H   12.854927   67.659340   16.669186
H   24.870403   72.600082    3.155862
H   17.748329   17.334368   77.918442
H   83.585182   64.001228   45.072128
H   29.368643   73.768539   31.267580
H   20.387138   41.075378   83.925667
H   97.400757   66.054581   88.867775
H   13.723077   54.791889   97.722290
H   38.710297   32.506893   53.056190
H   86.361771   38.092937   48.540131
H   80.619759   87.098648   14.402930
H   32.651688   34.970764   28.326065
H   69.715775   78.868752   64.735603
H   36.416885   82.078560   32.625004
H   42.034103   88.133011   58.365685
H   35.599693    3.740865   46.907650
H   87.285858    7.203061    4.685916
H   80.669807   65.544685   33.699173
H    2.085673   14.028152   61.446072
H   48.232555   19.552465   89.297760
H   68.978317   65.585136   12.492032
H    6.306252   42.376202   71.883583
H   62.641266   83.324760   12.999704
H   16.631973   90.371628   87.448921
H   60.775681   67.755936   78.225044
H    0.331770   62.791367   91.353424
H    4.323182   18.213722   45.492542
H   71.647690   67.599136   98.300285
H   19.993975   81.972702   16.510685
H   34.129429   93.810463   59.821655
H   49.162910    7.806421   30.900326
H   96.909782   17.344027   52.040535
H   82.136612   33.244049   71.794891
H   33.527031   65.705894   12.330452
H   77.585526   81.863312   33.795643
H   23.519392   31.635229   39.837540
H   71.681984   14.977714   93.851357
H   95.168633   92.332069   94.953285
H   30.323702   11.096511   57.068825
H   43.003490   48.392574   50.961872
H   58.294952   83.302917   83.659821
H   21.235844   13.623273   42.048840
H   89.808243   32.370922   86.503418
H   20.505941    0.436185   71.868324
H   83.869522    7.152396   49.368973
H   63.120918    5.378505   60.342056
H   93.787628   44.394516   66.657356
H   12.184284   13.035208   34.699898
H   14.480404   46.979641   26.344982
H   62.429287   88.503036   75.860992
H   59.835720   23.544455   95.373322
H   43.697369   61.612537   75.862480
H    9.485938   17.922335   78.927330
H   12.021410   74.547035    6.497265
H   25.091461    3.426779   46.786514
H   35.598267   72.198822   19.705902
H   53.244942    3.592615    2.660853
H   72.104866    4.103418   26.076702
H   77.561722   73.001602   78.568115
H   21.500755    3.438578   50.596889
H   24.978294   38.242268   79.028687
H   81.352760   91.939697    6.833892
H   65.691544   12.486176   84.679382
H   42.629261   80.494041   79.758446
H   34.956261   51.677757   84.099541
H   53.204079   36.384178   10.818758
H   84.568840    0.859006   15.039320
H   96.228600   34.467606   52.267185
H   28.226097   65.891281   54.256264
H   73.950737    4.231989   27.345133
H   27.177397   91.154175   87.210182
H    4.999966   82.526657   63.724373
H   31.222273   22.990099   35.924664
H   40.519676   68.655853    5.570521
H   24.824404   22.373779   37.666927
H    2.783768    7.776506   25.725214
H   84.038216   34.914516   54.453506
H   62.464924   49.171608    3.738294
H   82.657005   35.191994   17.894367
H   16.830675   22.650614    7.436236
H   52.299416   92.695107    1.068837
H    1.573414   73.102234   94.930748
H   50.355133   84.777130   85.495827
H   61.909843   11.032547   64.948486
H   50.902321   98.125366   13.168220
H   98.204048   94.447151   96.438080
H   16.622395   13.906138   88.703293
H   38.802578   46.094242   26.222771
H   33.597420   72.280777   64.363449
H   81.021980   54.418758   63.816681
H   44.604134   24.337772   74.805748
H    1.547729   18.288593   59.601234
H   41.590645    5.458315   35.539394
H   98.360840   53.356667    0.874112
H   65.306450   99.345421   79.980644
H   61.937252   72.967957   18.039846
H   85.742287   51.001572   56.070206
H   66.941765   90.613060   38.279522
H   97.242531   38.438976   76.048134
H   86.551376   22.310318   73.111748
H   64.271400   71.331940   18.239010
H   66.807213   89.899643   18.476978
H   91.170784    1.471904    0.261439
H   81.895325   22.950909   54.482494
H   23.593601   94.354462   38.587570
H   52.024002    1.128888   77.965446
H   69.535080   87.553230   74.653999
H   94.527855   52.106312   77.067787
H   56.454895   49.759689   71.458321
H   43.658119   90.481529   84.676422
H   69.826431   51.658554   27.443420
H   39.376419   52.799843   55.291798
H   42.532677   63.902485   86.297180
H   39.934090   12.482761   84.553993
H   58.539761   56.899063   61.755985
H   60.156517   68.660324   11.263481
H   53.907890   95.078636   44.503742
H   32.057869   58.975853   66.598900
H   75.557831   48.592628   94.087311
H   21.830261   92.910851   75.477127
H   62.544235   67.899368   48.415073
H   50.120300   96.373619   35.993286
H   94.200439   17.330624   89.844345
H   20.166481   10.048750   66.364418
H   28.998203   64.125809   67.772545
H   75.020256   44.490971   65.998230
H   63.372662   72.519760   85.350021
H   51.562408   30.434586   18.814182
H   94.623711    0.272370   88.215553
H   59.329655   41.112640   93.130905
H   57.767212   68.646294   73.099571
H   25.386736   21.045582   32.182663
H   81.920830   17.653225   37.070721
H   25.516844   31.577930   54.598801
H   55.239128   35.253876   13.636919
H   18.598579   52.093761   60.180836
H   68.218651   91.291328   56.334904
H   23.971157   48.585747   64.057022
H   99.345085   26.908422   35.940750
H   44.179420    7.531701   86.034088
H   71.952637   10.248038   35.943512
H   32.759132   51.035500   58.649597
H   45.169662   60.782078   79.506790
H   66.448166   65.257408   83.241257
H   53.404297   92.117783   80.987679
H   12.886609   49.756676   23.658991
H   31.431828   65.041840    3.138499
H    5.168774    9.570885   69.841507
H   65.678963   12.359670   64.596848
H   67.843651   58.617149   91.858421
H   74.334045   99.093498   32.698074
H   27.053709   30.579678   83.780746
H   47.770290   89.758484   13.753769
H   59.930542   25.938335   91.464394
H   90.540512   71.505615   76.798325
H    7.383061   39.497757   85.896095
H   44.862366   97.878578    7.862303
H   71.780640   83.659615   39.103172
H   95.381874   62.903645   70.977798
H   56.669220   56.162685   70.605118
H   66.355408   18.187416   76.530708
H   44.472176   95.473450   19.682325
H   12.718822   26.754684   66.694679
H   28.325098   79.015961   41.132664
H   71.579605   36.924816   20.547096
H   76.275406   11.335522   24.250584
H   12.040359   96.139183   16.562727
H   17.633329   89.694847   36.024315
H    6.739242   12.697550   60.664345
H    3.960950   21.847378   92.358261
