100
TIME:    4.239, STEP:  4239
H   30.655502   33.283356   95.265091
H   83.404945   34.569084   45.388680
H   52.619263   78.874855   73.585106
H   82.188110   58.003654    7.808337
H   57.202713   12.532046   50.767487
H   62.291279   96.615669   98.548027
H   30.804771   47.575932   21.948328
H   86.709251   55.328465   18.982594
H   49.425224   78.730774   33.256702
H   58.999611   77.249123   73.685760
H    5.953568   36.807743   31.427876
H   94.048561   36.169655   91.192802
H   73.567795    5.248974    3.813756
H   45.190224   92.010078   79.830109
H   32.064262   91.383087   47.008114
H   31.084156   40.970695   81.166931
H   83.231911   62.346203   59.281242
H   91.721031   88.557961   52.582630
H   11.292217   56.186340   86.689438
H   78.310997   15.796255    4.943442
H   12.728439   34.211643   42.189346
H   68.777405   49.711319   58.288269
H   29.147270   60.146706   11.066842
H   25.192497   87.521820   92.247620
H   77.973419   49.986320   67.845802
H   27.222567    1.337980   91.802299
H   96.544868   66.268936   84.077248
H   74.866760   54.301895    6.888970
H    3.343485   33.686886   56.792183
H   63.535248   85.924217   20.376816
H   82.887016    2.175396   74.002754
H   33.410137   35.392372    6.838567
H   68.947853   58.336769   79.679550
H   57.209518   85.243744   93.169533
H   75.400909   38.484306   82.853760
H   41.126377   17.445896    6.101480
H   86.374161   49.294907   42.481861
H   88.786674   81.376335   21.576359
H   66.145111   89.057793   33.521278
H   63.926010   15.342034   71.550903
H   45.545776    1.636027   42.214703
H   50.643967    2.105546    1.953665
H   47.753826   88.919968    7.661750
H    8.670507   83.811707   95.201904
H   88.953743   64.639740   18.853437
H   23.398762   43.769245    0.379807
H   74.851852   55.369286   66.157845
H   56.465801   39.030289   30.863197
H   88.941086   81.375519   75.379883
H   14.782092   95.254021   87.183327
H   43.221210   60.395470   98.112152
H   11.140303   70.392532   95.778595
H   96.801933   46.587891   56.675892
H   78.526054   38.042664   18.871643
H    3.278920   30.084009   36.401531
H   98.870163    8.074774   48.321243
H   64.984497   67.232124   59.151634
H   10.411025   76.566292    4.367573
H   24.597784   17.876854   86.053001
H   79.288101   53.612598   43.043343
H   27.100321   81.438499   83.889961
H   48.464226   88.486069    3.551599
H   61.847378   18.021244   42.789513
H   34.123734   64.854813   12.049541
H    0.574596   22.281734   90.328377
H   40.936562   31.539467   96.826569
H   47.465866   94.916473   71.721054
H   87.548927   59.970291   68.851311
H   68.174911   45.198822   94.369232
H   16.268881   61.353600   92.807007
H   87.424507    6.977999   11.297543
H   24.442505   10.840936   66.982689
H   30.601267    8.629169   53.062408
H   36.893627   81.127693   51.286797
H   66.548836   34.682468   22.743151
H   25.869738   79.253502   10.699080
H   51.829193   59.139019   66.017815
H   31.136257   73.543633   48.544884
H   64.786308   41.067448   64.981850
H   91.636536   78.089546   55.727562
H   93.824783   73.136063   33.343441
H   59.383308   71.911453   32.315430
H   85.998207   78.014801   33.643841
H   41.786354   74.899361   76.249313
H   45.925568   83.732903   36.828827
H   53.733532   64.762444   36.152344
H   50.267952   95.143082   25.675520
H   24.188955   65.909660   51.659119
H   43.655624   58.151314   93.521248
H   91.553848   34.871994   75.750076
H   97.499908    2.326147   22.981730
H   91.939499   14.295599   14.298971
H   57.181602   54.709236   46.812908
H   56.944035   70.360626   12.633032
H   83.300285   70.026573   13.494931
H   44.045624   28.337337   48.499153
H   26.130287   10.948041   93.399902
H   22.425932   52.330231   88.204613
H    6.776995   55.122959   89.975868
H    2.512604   69.851479   89.383728
