200
TIME:    0.365, STEP:   365
H   13.312197   62.060146   17.476999
H   29.078415   34.703022   94.971680
H   15.517733   74.609383   51.505119
H   22.056078   78.434792   41.230976
H   13.882986   86.897354   51.861301
H   85.552124   49.422298   61.849453
H    5.170249   55.215439   52.070835
H    5.689807   94.284180   20.635361
H   92.504883   85.632256   44.670044
H    6.460970   73.147942   91.141960
H   16.550642   97.264473   96.911789
H   31.294693   45.359272   18.698277
H   14.242145   91.156364   56.168541
H   98.495316   53.734318   48.289211
H   13.586828   72.906845   42.671032
H   25.656876   20.816048   51.626492
H   90.087769   13.572866    9.363104
H   33.593868   89.176140   41.294968
H   69.184395   25.176493   44.323948
H   90.453934   77.988060   32.625103
H   59.585205   82.998146   20.113659
H   87.246208   53.592278   65.757683
H   91.262039   61.632607   46.136902
H   11.255870   89.198822   91.194122
H    8.679611   17.731340   40.950016
H   18.557619   67.883659    2.828093
H    1.316353   61.304920   54.107727
H   97.378937   75.285950    1.060179
H   16.333351   52.730293   37.606419
H   87.400810   24.112934   94.301941
H   13.198295   56.671574   16.347639
H   29.652969   66.436020   96.680634
H   24.103012   11.675258   74.705986
H   92.289513   63.714294   40.475166
H   41.989826   84.635910   33.268276
H   28.978100   47.071896   80.909851
H   89.852188   71.731056   86.893349
H   26.731962   47.988747    9.547201
H   48.443977   41.924545   47.210163
H   88.883980   39.174458   58.813568
H   80.541504   99.384636    5.673301
H   19.561083   40.485714   36.124683
H   74.451187   84.910416   54.969814
H   37.002792   69.304985   23.218922
H   33.047855   80.108894   48.874794
H   39.300739   10.585395   44.047340
H   82.329727   20.088161   98.919868
H   87.072647   65.548698   43.153946
H   91.914543   24.008587   61.256454
H   57.644188   18.365602    0.424000
H   75.234680   68.913971   22.914871
H   16.359732   37.849468   66.229179
H   55.547527   90.845001    9.563540
H   20.546213   84.821564   83.554245
H   71.907913   73.604973   86.730728
H    3.703243   69.270645   82.741394
H    5.073750   17.218483   48.313725
H   68.774338   61.485241    3.047345
H   25.543537   76.892166   10.149752
H   40.212227   95.287270   64.683479
H   50.014683   12.937622   38.584408
H   92.182594   16.720999   50.024147
H   74.891029   27.795933   80.667770
H   27.154669   65.330673    6.458373
H   73.357765   77.942551   23.041058
H   33.836384   21.417473   35.110153
H   81.505959   20.525316   88.417671
H   96.641426   91.734123   89.746338
H   20.968754    7.542443   60.397659
H   44.517418   43.808655   50.975918
H   58.410328   78.754112   76.624924
H   28.627401   20.536186   43.889832
H   81.461075   27.824123   95.310081
H   11.937672    6.217117   64.211403
H   80.667099    2.895039   61.735222
H   56.473282   14.663511   62.060650
H   94.899246   34.603649   70.377464
H   21.925390    8.246120   43.693169
H   12.480896   35.262505   32.169941
H   66.392586   89.969810   88.333588
H   48.673389   27.989422   99.278030
H   32.132729   66.342438   83.992943
H   10.512028   15.037446   86.622375
H   20.597824   65.947044   97.925629
H   34.456944    0.645663   54.239773
H   28.188894   81.400772   25.180721
H   41.457577    3.044581    2.057891
H   74.291985   13.892028   16.156916
H   69.511520   72.361397   77.620995
H   22.818043   91.649994   53.490307
H   36.002857   35.971878   80.198494
H   83.184723   89.632187    1.095334
H   53.197746   15.452330   92.169762
H   54.422646   89.942795   72.536942
H   28.292292   55.235336   73.145889
H   64.095528   30.504040   23.184425
H   81.001228    9.955690    3.712659
H    3.458366   30.381105   49.777081
H   34.185493   68.525856   53.324230
H   69.377853   99.958710   27.280924
H   15.443216   83.882507   74.825874
H   95.220512   78.547707   65.175095
H   25.770529   32.601852   32.249702
H   27.882381   68.170273   95.126244
H   25.173038   25.830029   29.140175
H   92.371719   20.652916   38.038548
H   71.579666   31.648886   55.677490
H   64.014961   39.073742   13.908093
H   75.973251   38.511799    5.176975
H    8.382178   26.317549    6.149046
H   48.839153   94.980545    0.883797
H   91.013145   66.488708   91.934998
H   54.923000   81.725197   91.216446
H   62.800743   16.702501   71.730560
H   59.678886   87.173721   22.389811
H    8.937170    2.140463   84.573463
H   27.435589   10.202835   85.637314
H   40.136921   33.149109   31.479881
H   23.609493   62.406643   77.361755
H   74.081390   49.169674   54.005749
H   41.859200   22.590084   83.423798
H   12.895592   24.518871   51.865055
H   35.250008   16.550655   27.737274
H    2.235619   62.820469   12.391273
H   73.176064    5.857143   88.678955
H   52.301891   65.772537   23.117874
H   92.279564   49.773575   66.227264
H   72.694489   88.550346   36.058292
H   94.005997   47.958961   82.041641
H   73.803886   23.556875   68.631165
H   53.654846   80.722504    8.188297
H   76.902069   87.291153   12.274793
H   92.029579   88.676315   98.304985
H   94.791298   16.207907   51.245846
H   10.601210   99.109940   50.672905
H   59.028801    1.466424   81.840057
H   69.099663   86.883049   61.561386
H   92.284554   60.318039   81.223312
H   49.580521   46.081718   71.520523
H   43.515656    3.094776   91.984207
H   56.806049   59.392727   18.947769
H   51.483826   44.808834   49.160843
H   50.987194   59.061729   95.168053
H   51.985313   22.002840   80.195808
H   46.177525   65.621452   53.155994
H   50.520153   64.129578   23.859478
H   47.687645   96.230385   46.386871
H   39.239243   68.765717   68.107811
H   68.526947   59.573368   96.701820
H   13.446551   90.039505   85.319160
H   71.814247   63.432827   50.400536
H   39.049267    3.651020   44.235111
H   81.982674   27.164631   99.076393
H   13.214253    4.011934   72.863571
H   18.569260   57.180183   63.014851
H   67.212845   43.838848   57.906651
H   60.619701   64.632088   82.235886
H   47.823238   34.654320   12.652628
H    6.660816    1.263336   97.969299
H   62.278252   51.843567   83.038055
H   55.183804   79.331070   80.092331
H   37.735195   22.408518   34.461079
H   70.599983   29.120047   37.180077
H   15.862926   23.851784   65.850586
H   57.757324   26.329828   11.052758
H   14.067330   60.461998   61.618515
H   72.747391   95.545174   53.546829
H   23.741409   36.619801   53.181629
H   95.771454   27.763706   36.561771
H   32.177357    9.516411   88.995728
H   76.976990    7.120359   35.965584
H   41.844704   60.804295   57.841969
H   40.088123   72.083145   86.906876
H   69.686829   71.548004   77.139481
H   65.628082   94.096222   93.353928
H    4.766681   48.336052   23.406670
H   34.133621   56.825970   92.136963
H    2.837844    9.320068   66.478561
H   72.404854   18.473719   67.672859
H   80.354370   55.795967   88.148346
H   79.135674   89.668823   38.812977
H   21.748943   30.258633   74.179497
H   59.880333   90.036057    8.544026
H   54.202900   25.451752   81.788902
H   87.139442   82.912743   77.881851
H    1.877267   37.278534   84.579811
H   35.704559    2.383412    2.034815
H   84.415764   72.519356   29.900335
H    2.998468   61.730827   67.972015
H   51.886654   57.593342   67.282303
H   53.791702   26.888737   78.408821
H   46.628193   88.326187   23.032228
H    6.877034   20.497820   60.669621
H   32.919651   68.519798   35.832413
H   80.604980   48.672050   21.407396
H   75.633316   10.690171   27.853811
H   10.292169   88.967842    7.685834
H   25.276707   94.921860   43.441456
H   10.246407   11.961655   72.426628
H    6.704004   30.757879   96.012154
