100
TIME:    1.715, STEP:  1715
H    1.344341   64.747086   97.575882
H   53.564415   97.729012   86.181969
H    9.234159   97.288536    3.203271
H   81.764465   61.992210   46.158764
H   79.809952   10.222325   19.203835
H    1.421934   99.350105   48.588284
H   63.085514   77.143181   24.568092
H   85.090675   36.971043   50.729034
H   11.470024   21.403259   92.133614
H   27.972815   41.008217   74.848625
H   40.729904   35.249088   74.551407
H   90.382797    9.654694   70.853539
H   34.171471   57.947517   54.671303
H   70.164894   99.789742   87.752083
H    1.360063   16.836575   68.335464
H   32.568527   61.730751   90.681412
H   86.184036   95.412674   29.501734
H   37.793221   11.300276   40.090622
H   71.973488   50.301064   53.714062
H   46.312157   69.392197   33.097786
H   62.506104   85.483643   10.696644
H   26.793339   46.363541   73.226540
H   62.846306   80.674232   83.281525
H   59.699440   57.250462   79.703781
H   68.245720   50.158600   49.215721
H   38.795254   76.506104   28.425726
H   14.192043   71.188248   33.998577
H   87.835251   36.490108   23.460703
H   48.461975    4.690465   76.103569
H   66.754051   48.393814   19.726078
H   83.564980   75.837631   73.702057
H   74.043365    5.130605   40.497917
H   91.159744   43.004341   52.297699
H   50.564339   16.553078   99.501678
H   38.142815   29.279427   29.160011
H   21.667435   19.205732   14.744008
H   44.289658   41.729836   43.600529
H   93.107796   27.564747   43.463703
H   73.621597   43.897804   77.752731
H    1.659983   51.631184   72.967606
H   18.040352   15.029208   82.749191
H   77.486755   88.827599   83.373749
H   26.013136   73.784286   25.349915
H   69.844994   41.513992   48.417278
H    7.892372   64.223190    2.866907
H   55.961658   95.627785   90.134712
H   54.188892   18.254717   42.277779
H   56.331005   13.040915   74.692421
H   15.162572   90.413414   76.063248
H   61.858829   56.852795   63.713985
H   43.413776    4.071016   71.499542
H   88.479195    4.599492   61.476711
H   44.455330   31.952881    3.264600
H   36.976887   79.225395    7.495253
H    4.228165    8.850653   14.959129
H   95.712082   10.729565   34.244156
H    4.976217   40.061546   19.098349
H   98.354828   14.926867   69.381058
H   25.535393   11.231124   79.822372
H   45.845745   59.609592   14.830974
H   67.884201   98.817574   80.680565
H   38.042450   11.981552   17.755432
H   90.560028   90.202812   15.902684
H   60.806526   51.123665   80.579094
H    0.392411   23.869564   55.276463
H   95.990242   57.015297   47.589535
H   49.971146    7.655795   49.862926
H   61.898994   15.619760   48.189518
H   42.378242   26.557358   52.671692
H   65.126526   34.402321   98.121826
H   67.573326   78.711998   41.578709
H   32.557796   94.607407   82.186333
H   95.169968   33.475208   17.773037
H   92.446373   40.851135    1.281022
H   44.858276   31.083941   31.407055
H   66.205513   17.487627   80.531425
H   22.665499   77.902817   21.378740
H   12.554149   38.581039    9.152080
H   43.757973   48.478367   36.812965
H   15.418816   15.550966   73.172432
H   44.443256   47.024120   82.490425
H   70.002228   55.427811   43.370560
H   26.310749   35.881378   93.245239
H   68.147774   58.916363    6.783638
H   68.823135   41.610413   81.502487
H   11.818409   72.051201   60.878075
H   81.695686   78.658447    5.320929
H   83.563278   67.987564   77.916054
H   91.272896   98.684242   14.168499
H   14.709108   38.716118   85.524620
H   94.207375   66.035065   69.679398
H    5.179676   24.490015   66.197853
H   95.322243   79.018234   51.592331
H   12.988535   17.259645   42.452080
H   26.941254   96.109711   55.495201
H   35.573578   28.007154   78.866867
H   26.473518   66.100822   38.558121
H   13.162038   30.839874   28.596241
H   27.013607   44.242985    1.394277
H   45.748672   34.651478   32.507149
