100
TIME:    8.003, STEP:  8003
H   76.112053   88.108025   91.819046
H   79.453476   38.535236   82.720352
H   17.335169   49.671539   29.396656
H   82.819885    2.925987    1.490202
H   23.485281   14.232991   48.710556
H    3.911021   92.537849   71.310646
H   33.533245    1.737560   16.298191
H   90.866272   80.962883   73.385506
H   56.898857   16.837105   96.326324
H   56.169502   31.296221   21.069469
H   55.835464   88.260803   68.859238
H   50.390434   24.839413   23.266544
H   33.425072   77.574493   29.791124
H   58.820381   80.408394   66.273048
H   77.810432   55.165421   66.035431
H   79.739639   11.757414   68.721954
H   80.553322   11.307798    1.933019
H   72.205719    5.413100   22.102898
H   69.911667   14.087895   84.991013
H   76.900528   35.860981   61.214058
H   89.367363   59.494221   40.028233
H   29.635744   54.708084   37.748886
H   78.890617   29.535498    3.374223
H   75.464401   32.567352   12.701079
H   43.350533   51.483047   95.643898
H    9.872570   90.175034   37.764435
H   71.972076    9.800902   58.762989
H   57.271019   29.992682   31.308382
H   85.188148   75.186844   78.866264
H    7.864216   92.764908   19.604050
H   31.023298   39.700150   76.207191
H   71.071617   31.397205   58.386269
H   34.077221   82.945061   18.770399
H   16.247417   40.295448   34.596786
H   81.783043   53.730614   11.960230
H   68.324829   12.258172   94.265968
H   47.390537   11.447687   39.070339
H   33.214020   12.491764   87.191002
H    7.261575    7.046293   68.762215
H    9.400658   62.970207   67.695007
H   88.303558   30.784895   30.891691
H   25.764809   72.986923   88.527641
H   80.161041   11.495459   79.538094
H   68.323822   46.972374   63.225307
H   62.453804   16.136105   40.948639
H   74.820061   15.559054   15.674349
H    4.260697   60.068611    2.285351
H   56.676083   77.798294   63.757839
H   98.968330   69.640816   25.230522
H   93.764893   52.544216   23.962292
H   42.952068   97.005119   37.790421
H   94.073944   21.119478   48.689819
H   74.877190   68.412842   38.070076
H   91.362213   76.629700   84.967117
H    3.583728   59.950439   68.417068
H    3.563486    4.115344   20.185791
H    3.608311   58.623283   17.139488
H   30.135519   21.102823    7.415437
H   21.453800   76.924110   97.095566
H   30.903404   42.925823   35.986229
H   64.536026    6.395700   90.419441
H   14.875832   53.451279   33.243607
H   17.383812   61.172760   84.680725
H   92.591301   85.358780    9.856141
H   49.976707   21.657671   40.853821
H    9.711620   44.420433   19.384174
H   45.473114   25.047409   53.447308
H   27.543953   75.237297   48.792282
H   55.771965   74.741798   58.299812
H   92.561516   50.613194   84.869370
H   67.901100   50.878342   66.151283
H   14.240104   85.868553   42.662609
H   85.180267   22.451391   56.555088
H   54.028767   42.909588   27.642035
H   47.983322   40.099194    8.094503
H   14.851275   20.489639   57.427971
H   93.625694   33.120636   32.675301
H    7.975008   27.426403   56.416698
H   45.285286   30.011387    6.969776
H    7.051005   73.058006   31.455513
H   67.487083   12.077065   58.311295
H   41.834969   96.371216   17.473545
H   24.081762   40.956577   92.107971
H    0.743482   96.992920   32.466801
H   62.650696   48.284290   71.951942
H   67.105453    3.016566   97.535675
H    1.657063   21.469185    5.157223
H   84.739281   64.667236   12.599312
H   21.769608   48.577705   62.736580
H   58.766911   80.011368   10.305790
H   51.538441    5.571153    2.470597
H   70.439857   97.381866   86.016060
H   98.461349   67.649925   37.888855
H   20.725218   98.705650   66.428780
H   18.224430   32.869736   99.987793
H   54.936584   79.702515   54.083611
H   27.361605   26.954597   76.928719
H   22.829676   82.447609   18.220922
H   27.468407   71.361092   74.702751
H   36.308147   73.261917   26.785671
