100
TIME:    9.374, STEP:  9374
H   83.396881   62.381111   90.563858
H   41.588638   12.826517   69.166862
H   40.901325   48.306725   13.303661
H   83.050003   46.442253   26.341291
H   11.200129   24.124420   11.538637
H   82.655029   91.052544    7.084151
H   61.677059   94.314690   23.512188
H   83.108383   99.572800   47.504707
H   23.197060   85.020004   10.026941
H   18.721205   50.981754   74.750740
H   28.308380   43.424194   36.796288
H   98.059944   93.560951   25.677166
H   46.000839   94.593224   93.545425
H   90.937485   76.182594   70.606483
H   94.462593   32.700935    0.106205
H   24.615265   91.844528   54.917053
H   70.305672    1.989002   26.740553
H    1.524271   38.699974   74.576248
H   91.270782   71.605499   57.218906
H   39.962971    6.746542   54.558098
H    8.010004   23.006144    2.817424
H   61.074856   56.528107   20.995560
H   60.585793   18.390474   64.149368
H   48.078465   48.968475   10.879025
H   94.317123   42.755844    5.766296
H    3.406331   49.757980    8.746462
H   53.749115   52.812107   85.960739
H   41.590652   93.986343   76.628136
H   14.999909   99.574944   14.058174
H   60.433678   58.832993   28.594318
H   84.981758   62.639507   67.738052
H   57.637379   93.519287   31.465919
H   30.649139   82.636200   42.280907
H   74.175766   14.651426   76.839973
H   47.662849   49.926643   95.373871
H   87.503525   19.644564   89.956490
H   78.887177   61.239021   47.099812
H   76.546165   87.404915   83.938271
H   49.393650   77.174034   35.901810
H   80.267044   34.620689   75.562149
H   94.605453   77.826141   63.191860
H   10.224264   78.363312   58.518818
H   91.959808   19.720737   78.566093
H   80.787270   69.991615   97.274361
H   43.530640   62.054882   58.272274
H   57.125977   41.705517   21.244246
H   14.979264   34.629421   15.451611
H   56.759762   91.919159   48.587162
H   39.040726   56.094700   70.543030
H   22.543791   73.416435   28.102428
H   43.477375   64.692070   51.295090
H   60.705547   93.901230   58.691353
H    3.308055   76.362366   58.446594
H   59.607407   54.261879   45.464424
H   94.422646   80.097717   80.069397
H    5.271065    2.673185   73.513702
H   90.523178   19.063942   47.532906
H   28.048239   91.628181   72.102196
H   29.586372   34.854614   91.843285
H   40.431110   48.305660   96.991737
H   51.022236   42.636440   83.528740
H   66.216331   40.690201   71.212852
H   10.461097   67.618065   90.667145
H   86.735840   92.827148   72.637466
H    4.392256   12.156879   68.528419
H   25.489487   76.264336    0.448414
H   35.475357   72.443848   19.638988
H   32.839584   53.646736   14.334015
H   24.100489   76.230484   72.312805
H   20.406052   19.476786   81.961517
H   24.358391   57.592213   49.708321
H    1.341624   40.347069   43.155949
H   95.789612   54.632725   21.399364
H   23.851955   56.138561   46.181984
H   14.026029   42.117954   12.044508
H   47.266411    8.357818   65.176712
H   18.141941   14.456326   56.994568
H   72.379601   37.785057   32.141022
H   11.031806   25.984325   22.271067
H   39.815147   98.372505   13.342672
H   94.327187   26.260691   40.254631
H   44.713074    5.267546    2.775460
H   10.799429   63.884678   22.675220
H   95.065575   14.312557    7.247906
H   95.895615   62.518723   39.049408
H   35.548962   53.377975   92.742096
H   93.223106   21.786003   70.531654
H    6.788257   54.959511   98.385437
H   50.222416   72.243034   51.523567
H   37.551289   23.604095   59.312431
H    7.645659   79.598434   31.423851
H   71.879974    0.494247   12.140336
H   86.345062    8.780432   43.910393
H   52.605812   81.834824   59.822887
H   94.518692   10.063198   31.489107
H   68.175552   25.562696   83.269501
H   18.538391    5.633441   98.080399
H   20.183321   50.285107   90.693932
H   62.157280   77.281395   59.867779
H   21.467110   38.082523   94.712372
