200
TIME:    0.142, STEP:   142
H    6.459801   62.800236   13.663837
H   27.090807   31.447407   85.918770
H   20.191757   64.848709   40.521172
H   14.539107   75.828316   47.062370
H   16.250656   81.245453   55.067505
H   92.806702   55.474869   68.450432
H    1.939410   55.373665   47.754498
H    0.692496   84.654510   28.550915
H   83.448570   88.975418   50.110126
H   14.311001   76.271629   99.937965
H    8.777803   92.500679   89.864777
H   30.372559   39.407082    8.072730
H    8.768886   83.755470   65.308220
H    9.035938   52.793468   37.543453
H   24.353380   71.190178   43.219719
H   32.156902   30.004215   56.437073
H   79.597214    3.128719   20.190102
H   38.889336   78.455902   45.265079
H   61.764790   33.249783   41.041183
H   89.744469   81.050499   41.269688
H   56.908974   71.866180   30.330296
H   92.210762   45.068489   74.351227
H   97.939857   63.253998   51.487663
H    6.543689   87.183174   91.894676
H   98.986885    8.762476   48.907253
H   18.742216   57.987392   10.193258
H   96.998146   56.830357   45.141586
H   92.261261   66.086723    0.473409
H    6.941034   59.508492   38.912209
H   97.477936   18.139051    2.015807
H   13.489439   47.354954   16.074997
H   33.708149   61.209457   91.190361
H   29.491203    6.876799   71.982117
H   99.669991   63.471001   36.577362
H   52.691349   93.850449   34.964527
H   36.262451   52.156395   78.352715
H   83.451691   76.544189   85.219215
H   37.762493   42.220303   19.573711
H   56.697250   49.909855   42.253265
H   91.022583   40.091488   67.524506
H   80.475151    9.801693   98.271271
H    8.461443   45.161888   42.737000
H   78.466385   90.033195   46.689320
H   37.499588   58.474594   15.243396
H   25.428705   73.305176   40.827385
H   42.438889   16.388943   41.622059
H   78.127380   31.013412   94.030174
H   92.501671   65.552101   51.170731
H   83.290375   32.471127   61.095676
H   65.624222   17.359251    9.858570
H   80.539505   71.736519   31.752560
H   24.884371   34.011211   61.434303
H   49.534088   97.226784    6.646092
H   23.865131   80.115616   80.251915
H   81.347031   78.564423   93.942772
H    6.561945   74.764320   75.439178
H    5.710163   16.374611   50.705830
H   66.337997   56.301212    7.072219
H   30.249060   72.584335    4.756244
H   45.369884   96.539467   68.805862
H   50.736908   17.288412   45.099747
H   88.175903   16.192728   48.315136
H   68.747437   23.176329   88.191162
H   21.751591   65.012520    1.479463
H   69.773010   74.618103   13.922173
H   42.583900   12.753828   31.101761
H   89.835793   25.229137   83.810402
H   97.890221   91.227119   85.331322
H   13.036692    4.528918   63.220207
H   45.801090   39.921909   50.987827
H   58.508156   74.897141   70.659973
H   34.894573   26.397779   45.450825
H   74.383438   23.968853    2.777170
H    4.672673   11.118760   57.719852
H   77.951736   99.285103   72.220673
H   50.836693   22.536495   63.517860
H   95.841797   26.301889   73.531776
H   30.185043    4.185411   51.318642
H   10.785496   25.327158   37.108974
H   69.752762   91.213501   98.909210
H   39.208752   31.758348    2.588282
H   22.327389   70.352531   90.886833
H   11.382058   12.591323   93.147072
H   27.869841   58.655037   90.657440
H   42.398018   98.287567   60.559456
H   21.906216   89.203186   29.822868
H   31.462969    2.579899    1.546657
H   76.146461   22.191717    7.745846
H   62.690315   71.806923   76.809685
H   23.934982   81.654533   55.943661
H   45.350906   34.046795   81.190384
H   84.738060   87.675629   96.229477
H   42.604259   17.967358   98.520920
H   64.422394   97.954475   66.413765
H   22.641666   58.251839   63.858192
H   73.330482   25.518219   33.669384
H   77.976219   17.668783   94.108566
H    9.588774   26.915871   47.665699
H   39.238518   70.759735   52.533951
H   65.500465   96.334824   27.226480
H    5.493878   77.716797   64.325111
H   86.928108   75.173920   66.405174
H   21.147947   40.751343   29.133278
H   17.166822   67.758545   86.270691
H   25.468649   28.760612   21.910267
H   83.543388   31.570936   48.478912
H   61.015957   28.879930   56.715317
H   65.328407   30.511673   22.531038
H   70.306038   41.326691   94.393791
H    1.218641   29.426775    5.057627
H   45.905167   96.918388    0.726901
H   82.058914   60.880569   89.394875
H   58.796135   79.137436   96.067009
H   63.556145   21.510105   77.481140
H   67.120613   77.887726   30.208813
H   18.037884    8.664293   74.513351
H   36.604191    7.062740   83.037643
H   41.268322   22.172817   35.937431
H   15.140574   54.034275   88.383133
H   68.196404   44.718929   45.686974
H   39.531746   21.108204   90.731117
H   22.517605   29.801579   45.305481
H   29.873724   25.955746   21.121981
H    5.521176   70.845634   22.156704
H   79.848778   11.378507   96.054329
H   44.131985   59.670872   27.423578
H   97.822578   48.732346   74.839523
H   77.572273   86.801353   34.174892
H   91.261711   56.031040   87.123589
H   62.995178   24.613842   64.832039
H   44.652977   88.684845   99.666229
H   85.461586   85.079391    7.015924
H   92.757759   77.826775   96.646164
H    5.726020   10.490282   48.500710
H   99.584808    3.142096   60.920166
H   64.968231    1.752624   85.125374
H   68.730469   86.314796   50.460045
H   90.382439   67.280434   84.746819
H   43.751678   42.963135   71.573265
H   43.394859   13.790132   98.180542
H   45.765957   65.950851   11.744357
H   61.749802   38.033188   43.962353
H   58.155853   54.957211    2.689678
H   62.203651   30.075253   76.500465
H   35.695477   73.017242   45.863987
H   42.349396   60.287094   34.539734
H   42.413445   97.206963   47.983593
H   45.328392   77.066628   69.387230
H   62.565403   68.883591   98.918686
H    6.326853   87.587952   93.663048
H   79.674507   59.645611   52.084026
H   29.662146    9.821337   51.223427
H   71.623123   35.502972    6.905006
H    7.319272   98.893127   78.374260
H    9.726467   51.290943   58.980087
H   60.592873   43.285908   51.045937
H   58.285442   57.944828   79.595383
H   44.652763   38.232269    7.428181
H   16.867064    2.103593    6.239158
H   64.778130   60.942413   74.480240
H   52.993309   88.390785   86.021553
H   48.205334   23.564163   36.392967
H   61.000942   38.842567   37.272800
H    7.677494   17.300716   75.391785
H   59.892525   18.763052    8.861626
H   10.225245   67.557076   62.837536
H   76.587349   99.152046   51.182796
H   23.546604   26.473770   43.960285
H   92.741341   28.488909   37.088341
H   22.000702   11.199264   91.506927
H   81.237183    4.468372   35.984299
H   49.548439   69.086823   57.157173
H   35.779442   81.665176   93.181473
H   72.429588   76.893494   71.974014
H   75.992737   95.773758    3.839098
H   97.881561   47.131493   23.192724
H   36.424496   49.859772   82.808434
H    0.861453    9.107399   63.627087
H   78.107796   23.657747   70.281036
H   90.962318   53.403862   85.002541
H   83.207016   81.677559   43.997856
H   17.250986   29.986416   66.038513
H   70.146652   90.267441    4.130406
H   49.347038   25.038839   73.584969
H   84.255646   92.584946   78.800583
H   97.208794   35.396835   83.463722
H   27.939798    6.203250   97.093887
H   95.129196   63.073513   22.097496
H    9.456387   60.736385   65.423386
H   47.831474   58.806408   64.464859
H   43.138668   34.266663   80.001289
H   48.456299   82.265961   25.872641
H    1.923668   15.192569   55.561302
H   36.815754   59.619591   31.338221
H   88.257675   58.632633   22.136852
H   75.088882   10.142973   30.909019
H    8.809863   82.887199    0.159013
H   31.757593   99.353889   49.730515
H   13.220162   11.337683   82.399971
H    9.029909   38.312817   99.110321
