100
TIME:    1.055, STEP:  1055
H   45.976723   25.272346   98.180130
H   71.923485   61.947170   44.549282
H   97.890808   49.804714   10.952438
H   81.653687   89.183372   82.335564
H   85.721512   57.320427   37.099159
H   11.656719    0.065433   83.225975
H   97.678581   32.576336   72.955147
H   36.965378   79.872574   11.326857
H   27.694084   84.859375   33.678291
H   46.009056   31.531719   49.004028
H    2.121500    8.692733   38.126602
H   15.572941   76.572472   17.832952
H   76.153061   97.878242   20.270750
H    2.844536    1.824474   37.526348
H   93.333275   75.787659    0.058501
H   59.105087   19.458462   45.466293
H   39.246101   51.765823   69.410545
H   23.689064   43.396103   62.971481
H   61.692329   22.611399   18.944620
H   64.092186   83.410721   88.161903
H    1.671426   51.189415   28.610081
H   63.508106   45.492416   29.423969
H   71.658257   86.041969    2.164425
H   21.020630   49.334812   28.720985
H   91.851677    2.505053   44.346489
H   41.821529   96.174377   90.287903
H   71.105759   98.621109   20.901503
H   43.522934    5.683154    1.644981
H   34.111084   44.809605    7.302457
H   41.446133   64.728653   67.258080
H   57.602451   16.650881   25.928051
H   32.370396   23.364441    1.597458
H   44.670834   91.293831   92.839684
H   22.678291   77.038307   27.305273
H   54.548149   79.170174   88.971085
H   64.283081   67.360245   17.014227
H   80.986931   65.899757   91.595284
H   20.386559   39.644672   96.890617
H    3.290561   57.986855   41.010437
H   63.823219   13.417379   21.038919
H   63.142433   92.381859   67.199875
H   36.803795   59.208557   52.365757
H   20.328169   69.826462   77.676399
H   11.990698   30.451571   83.886116
H   65.140999   90.266281   46.388153
H   64.476692   83.039299   87.455925
H   47.219898   82.652283   36.638130
H   56.295757    6.245641   33.855328
H   95.870659   45.073631    2.388637
H   48.016514   46.807171    9.877502
H   43.464130   67.790077   64.540619
H   56.403694   65.843826    4.802110
H   30.764078   28.125977   41.597221
H   52.259327   89.991081   78.371109
H   56.772285   50.992306    9.358505
H   94.886276   11.423191   56.712112
H   63.132599   59.105431   56.326744
H   47.500916   77.255836   86.380569
H   73.481865   83.344528   30.490093
H   89.399857    8.877935   33.602867
H   26.251158   29.509186   32.139595
H   61.467133   18.125565   47.620392
H   45.793274   35.210899   61.181007
H   15.483805   47.533424   98.495049
H   74.198219   76.583580   93.811150
H   36.534889   89.825966    8.565424
H    2.923543   84.836426   17.997807
H    7.489717   77.873459   16.637701
H    9.482222   73.980759   94.064064
H   51.757111    1.205827   99.511597
H   88.530663   23.619028   49.494358
H   86.977493   16.512321   33.863487
H   38.204285   66.120033   34.697018
H    6.970349   82.617538   40.506813
H   13.038199   30.144838   81.373833
H   50.601521   75.189110   24.941879
H   62.743114   35.106316    9.701921
H   81.546143   81.737389   72.704803
H   12.120554   50.411961   29.452084
H   47.786392   51.497536   30.031891
H   31.527454   40.196117   43.043102
H   20.480267   51.117508   98.558548
H   84.549660   24.865553   30.383305
H   22.744032    2.439308   67.067451
H    0.959108   82.893356   45.481987
H   27.010212   47.807423   15.045834
H   37.615791   26.645836   73.849533
H   72.938583   20.828438   84.775047
H   77.576607   35.430916   19.568539
H   73.061264   65.872375   61.928738
H   67.197487   30.399137   55.741405
H   56.346272   74.852272   53.623581
H   52.974525   59.240395    0.532201
H   49.198090   77.227028   97.952309
H   38.352589   55.229935   40.328575
H   81.060242   54.070000   12.956972
H   78.861557   28.224546   76.514969
H   10.738751   25.220367   39.156288
H   58.454247   41.397984   56.678013
H    4.760513   51.605671   96.074043
