100
TIME:    6.267, STEP:  6267
H   93.511063   47.306297   93.408401
H   27.395451   44.464130   73.260841
H   87.489029   24.776741   49.779293
H   82.528503   74.449677   96.646606
H   39.038101   75.085114   95.781967
H   30.835865   94.418587   99.387932
H   24.517189   84.515526   80.540642
H   27.312454   30.777073   32.778751
H   99.573051   83.746826    5.600932
H    3.585760    6.368658   53.096134
H   17.313950   18.408636   36.080498
H   16.646088   37.822803   46.836830
H   44.156570   82.612282    2.300957
H   44.776146   85.759224   34.161732
H   56.724983   10.233490   49.521870
H   49.541733   63.594276   12.825089
H   20.152382   96.484886   43.898079
H   35.083950   89.886978   82.278358
H   42.876484   41.262405   93.532761
H   23.673859   72.723915   43.019096
H   92.384064   32.317760   87.145882
H   63.203735   52.403519   85.585358
H    2.068913   43.653114   53.044556
H   36.763180   11.799776   41.631611
H    5.441022   89.155090   82.823097
H   17.977800   41.391701    1.097224
H   21.668114   81.965836   24.313711
H    3.751040   48.962074   73.928116
H   47.440956   17.683353   60.927551
H   41.297153   35.731712   81.597336
H   62.703506   84.029427   13.553841
H   61.459446   79.360245   19.096443
H   11.795746    9.959059   62.377808
H   42.897911   99.389664    7.733066
H   24.987961   85.170235    6.339390
H   17.417307   76.286949   99.722755
H   80.885536   75.024048    2.280510
H    4.967081   44.265263   64.684990
H   80.540741   44.868584   36.993095
H   72.911423   25.487492   31.108591
H    6.946972   71.217216   89.993507
H   72.065323   66.179184   99.901878
H   65.221100    1.081674   54.145317
H   79.174103   17.834188   93.490074
H   13.040291   84.628067   92.394028
H   97.229973   82.450272    8.621584
H   90.695602   65.658768   85.622139
H   56.574108   59.918045   56.344364
H   48.219032   13.417503   94.480209
H   57.318104   26.119707   45.343536
H   43.071270   64.605118   19.490871
H    9.697582   82.208862   62.646614
H   38.869045   58.346924   38.891224
H   31.562500    4.948466    8.362227
H   41.807426    7.814443   53.653271
H    1.401300    5.941447   79.283325
H   93.553017    8.714980   52.031334
H   59.401764   85.046501   52.132309
H   84.541763    3.565003   30.364937
H   45.460823    9.489842   85.362206
H   55.027973   87.127213   25.771526
H   76.489845   69.609726   11.791072
H   99.526558   79.634071    3.723450
H   73.384201   75.902115   56.993343
H   81.071426   60.310329   79.187263
H   16.355000   30.721825   16.737791
H   84.755081   65.026184   69.632889
H   47.461266   75.953529   65.801437
H   69.250008   99.479691   67.178680
H   57.351097   63.355789   88.536621
H   23.027248   68.994385   86.971840
H   57.223484   43.535538   15.461814
H   98.370544    8.315971    1.059686
H   92.249306   52.779942   30.789072
H   64.326408   37.575809   76.479019
H   73.815575    9.228256   74.239044
H   35.960537   83.375999    1.887687
H   26.415386   40.936676   60.544250
H   62.036541   35.110569   87.602516
H   92.185867   67.626472   81.013573
H   33.507919   94.116653   54.552753
H   11.568134   85.113281   62.706226
H   14.276055   11.924817   26.780708
H   81.308784   48.440086   91.023766
H   47.178627   56.881844   40.236954
H    7.053304   39.251465   76.982651
H   85.713478   47.690834   22.378225
H   56.819603    3.581652   30.598763
H   85.740585   45.235329   76.934822
H   12.251370   51.435947   48.246269
H   80.494102   11.832233   65.809372
H   41.993435   66.817627   52.935410
H   87.180344   15.559728    3.641307
H   52.948055   93.384834   49.373154
H   48.239799   88.369705   60.094975
H   11.550139   48.254242   43.750336
H   65.157341   27.330069   76.768326
H   26.180567   96.550476   53.070160
H   10.167623   63.864872   20.109917
H   28.478731   17.813911   94.020119
