100
TIME:    0.273, STEP:   273
H   98.861000   96.985909   98.896072
H   93.676201   19.546360   95.221313
H   84.454956   93.544868   20.134399
H   81.522430   21.402758   25.198854
H   92.725815   94.639679   58.302986
H   23.782993    0.916524    5.781204
H   38.662540   79.772255   11.801627
H   98.429031   12.220501   83.128227
H   46.917137   60.045563   82.903008
H   67.379936   20.306339   18.379595
H   74.861237   77.227325   13.453075
H   45.421772   37.374626   73.496712
H   25.897202   45.190582   97.995323
H   41.564579    4.235545   78.015862
H   83.823174   45.636963   37.649509
H   90.546890   87.858711   10.378315
H    2.117708    0.051033   98.211098
H    6.978536   81.424576   90.081833
H   49.515343   89.805374   77.744766
H   85.259529   99.807892   34.812630
H   48.076340   29.039368   49.832283
H   88.524757   44.460266   96.009712
H   82.099083   92.401924   24.539684
H   93.676849   39.955967   86.799469
H   19.819242   64.523521   38.574356
H   45.406864   19.475315   63.584251
H   38.537609   31.128342    5.383577
H    9.506332   69.181900   75.799301
H   17.107452   73.860741   44.266968
H   11.461896   84.082962    5.091674
H   26.840792   46.523705   87.809044
H   82.994812   44.968002   73.991112
H   89.587463   48.507988   22.390951
H   89.636833   48.703827   60.250130
H   73.985985   38.283554   41.351822
H   96.291039    5.931120   19.704977
H    5.983634   94.537453   29.976513
H   52.705391   53.957554   41.705799
H   38.447308   74.680244   15.960519
H   37.479984   86.625908   59.514145
H   16.585583   65.545952   48.771358
H    7.085495   24.109484   15.625997
H   13.592877   65.137039   21.192497
H   61.926483   17.346842    7.424427
H   32.975021   21.120621   79.468689
H   74.464790   68.336235   84.388863
H   38.962696   40.468014   29.955999
H   56.253994   98.193451   85.469650
H   73.008232    9.839970   33.583626
H   31.615469   34.904629   64.569595
H   43.523792   43.287453   56.295353
H   18.400152   38.406509   56.141098
H   14.542150   23.591675   87.014778
H   70.364609    2.747765   43.862690
H   19.025635   82.437698    2.722686
H   93.907822   12.245090   83.333237
H   13.559483   81.669548   81.951958
H    5.731113   51.105232    6.522907
H   11.808479   50.303787   90.525116
H   41.002998   48.772186   55.844810
H   76.921616   65.873398   93.110901
H   89.221832   25.404312   83.002640
H   92.750084   88.536674   14.829282
H   61.786934   43.279533   19.728285
H   43.158112   39.040112   20.984804
H   84.574623   28.701496   62.327755
H   65.665337   57.799038   80.242477
H   61.507805   33.150925   79.253578
H   70.509880   30.170280   43.110905
H   35.916885   61.876289    1.156687
H   13.363314   76.829536   58.873203
H   51.456387   42.465233   76.610023
H   89.191315    4.804043   54.749371
H   24.182014   32.103397   86.983406
H   75.333298   29.032145   22.093300
H   32.112309   25.068926   77.559616
H   91.741486    2.882310   95.863586
H   44.806366   32.869663   29.516781
H   74.639198   52.701618   20.732502
H   86.137039   94.085930   97.402069
H   16.224186   32.105968   96.305557
H   61.807507   46.010452   63.952690
H   35.069599   11.814042   55.901733
H   68.950714   35.522556   38.494637
H   39.037262   31.807579   21.288052
H   45.010563   19.081205   60.741322
H   85.387764   83.503593   36.560863
H   60.349930   83.437065   92.900993
H   61.348579   78.972145   25.967274
H   42.198799   98.053986   33.971188
H   35.194859   88.172745   39.227001
H   98.485863   16.038416   38.726013
H    2.800623   35.811180   40.035057
H   73.614815   29.791681   45.225277
H   51.871967   25.275791   22.360023
H   16.470306   84.950981   53.348167
H   40.932610   83.347389   21.488518
H    7.867558   18.562103   51.667381
H   95.707115   38.027088   22.184139
H   56.195721   71.691536   71.392197
