100
TIME:    6.100, STEP:  6100
H    4.804602   62.621086   93.561295
H   32.007088   35.414135   62.731449
H   84.617188   12.762530   51.740147
H   82.500473   81.329865    5.800380
H   40.533905   61.699326    0.310125
H   33.426128   94.599510   82.849998
H   33.269588   73.239662   67.481026
H   40.438324   16.329952   48.112652
H    3.678285   99.803146   16.113283
H    8.147707    3.970625   46.557407
H   32.847885   11.689190   52.166122
H   23.020454   29.451908   58.724266
H   54.813217   92.710869   18.894951
H   53.045113   86.273964   21.452496
H   54.696358   25.150761   57.552349
H   56.256287   78.200661   26.687958
H   33.581490   85.438362   28.695410
H   31.512625   98.013245   88.067909
H   40.276028   34.256081   84.733765
H   28.172737   76.271034   31.648951
H    2.294074   48.943607   91.679161
H   47.193283   52.181824   99.806961
H    4.298832   45.011314   57.822464
H   52.280552    9.801973   54.035061
H   11.413726    2.398415   81.589760
H   18.739080   46.328873   16.801186
H   36.068909   88.907181   20.999754
H   17.841770   41.167076   68.408676
H   43.809746    2.532013   68.821930
H   34.893482   39.864922   68.321121
H   56.130379   69.053551   26.766350
H   50.914921   83.975067   34.556480
H    0.032219   22.177126   47.333130
H   35.841896   14.694020   14.768064
H   29.142399   97.805885   96.175598
H    2.900515   63.206947    0.247811
H   64.867439   81.139771   89.121559
H   11.869247   47.321850   52.900684
H   87.589111   48.507439   53.176826
H   88.641571   41.121815   17.969343
H   18.359818   65.486275   86.059059
H   86.139130   65.524292   91.375542
H   63.783710    0.079862   42.083328
H   89.838394   15.031149   77.161095
H   27.526272   91.217758   78.103622
H   99.385765   79.264999    7.943121
H   89.390915   56.576920   84.019310
H   56.565189   58.197998   46.011341
H   43.337921   27.247955    1.141406
H   53.813229   23.577253   57.020950
H   43.082737   80.727692   17.730690
H    1.581735   97.704712   73.609047
H   35.404743   57.378601   48.591015
H   35.429420    7.673467    0.993413
H   55.104027   93.179520   52.232639
H    1.193302    6.117115   84.968399
H   82.965172   13.533978   36.148293
H   71.837067    0.817451   56.433701
H   71.370026   96.508507   43.185020
H   56.480591   96.653610   90.112083
H   44.493641   94.894180   38.791645
H   82.417000   71.164139   19.347633
H   88.189537   91.029701   15.175140
H   61.916992   74.992401   61.527897
H   74.443512   73.648056   63.635487
H   26.613487   39.023918    6.863153
H   98.153610   59.252972   61.570328
H   58.997047   66.402809   57.817875
H   60.927059   11.479225   77.651855
H   53.968338   54.955589   88.888275
H   28.330727   80.356888   88.974739
H   70.993423   49.077911    3.234823
H    9.259533   16.576019    5.341911
H   95.926384   63.348675   40.711754
H   56.275265   37.337551   63.819473
H   69.868385   98.525078   85.476685
H   20.795063   97.838234   98.929482
H   18.569424   51.857063   51.320976
H   54.028767   35.601101   85.739769
H    0.375816   76.723610   95.400810
H   30.239832   92.388962   44.571384
H   99.034866   84.030151   76.675896
H    3.712483    9.132289   10.876110
H   69.818871   34.149681    6.276949
H   55.309990   67.327858   56.425781
H   10.897251   33.116631   65.385712
H   74.559929   59.833092   14.415045
H   54.133781   16.945143   32.330276
H   82.275009   54.533775   78.300667
H   27.016462   58.307217   42.277069
H   73.659782    2.814810   62.282635
H   29.637125   54.257462   49.753960
H   76.475281   10.548657   90.726944
H   36.808918   83.253120   38.112579
H   51.126930    3.328003   56.257359
H   97.756546   54.849030   52.376053
H   78.413170   17.746859   86.372559
H   26.502916   88.286606   56.422340
H   18.122925   63.145000   34.098358
H   18.106211   22.099377   10.107680
