100
TIME:    4.643, STEP:  4643
H    3.335693   96.234657   94.895218
H   72.247108   56.462486   70.862854
H   59.563629    7.940314   68.844566
H   82.255920   41.359367   85.664558
H   53.584122   44.914429   39.813080
H   56.025013   96.177986   38.558002
H    9.631313   74.855927   53.541653
H   54.955650   90.280701   81.889244
H   39.494133   39.887939    7.826067
H   47.958900   83.049965   89.503998
H   68.374481   53.063663   92.512329
H   78.631020   56.420204   62.435173
H   47.787643   80.818535   63.670166
H   25.186783   90.764839   10.573756
H   36.977409   55.295807   27.587048
H   14.839024    5.635263   47.631775
H   50.744728   89.069336   96.058952
H    0.355531   68.903725   38.575634
H   17.584682   73.134109    7.974588
H   67.424400    7.216742   32.449623
H   88.754524   93.991547   31.225582
H    7.509277   50.247635   23.883911
H   23.753288   56.861000   99.507568
H   87.656464   92.367157   62.244568
H   63.523712   17.946068   70.829445
H   25.380907   89.396927   53.811001
H   61.708786   49.474033   92.091164
H   40.778896   73.159256   20.243944
H   12.128726   70.341301   37.694405
H   79.026764   75.925316   52.493568
H   98.785393   38.402355   42.039558
H   58.919048   24.231453   69.438286
H   97.403419   28.777918   16.075064
H   74.279160   48.219452   76.149208
H   65.358856    7.944918    7.455558
H   76.245819   49.088535    4.830427
H   25.123453   34.499985   74.315598
H   72.086906   73.985039   50.084324
H   49.091267   80.254814   94.371414
H   25.875071   77.521584    3.335493
H   17.935539   15.497167   51.732769
H   14.334459   20.237841   20.932932
H   51.233715   91.342636   36.842720
H   82.872284   90.580383   34.703102
H   53.909161   48.701172   53.424824
H   18.186634   51.474934    2.022158
H   78.008102   77.339745   70.035347
H   56.487377   43.191360   55.860451
H    0.752192   47.915821   59.264839
H   23.255268    1.400778   58.925583
H   43.190388   21.391937    2.371432
H   30.772856   32.903339   69.258698
H    5.181129   48.930420   33.210529
H   69.168266   31.449677   36.698387
H   71.112335   65.490242   39.838268
H   99.375656    7.649737   34.568130
H   90.598206   55.574959   97.575279
H   80.328262   38.413887   93.961411
H   56.459267   34.947769   55.038254
H   52.627735   84.664474   31.552620
H   52.584869   62.649174   52.390244
H   34.125481   84.725693   85.273209
H   89.273705   90.452805   15.086021
H   61.867294   67.055557    1.079723
H   16.610304   90.015320   27.951773
H   16.118435   11.455521   20.713720
H   15.051851    8.884089   91.225693
H   59.642006   83.075027   88.164848
H   88.308334   16.169952   69.032928
H   24.453863   81.672363   91.956299
H   74.596077   79.490067    6.450788
H   91.130707   97.432632   96.560204
H    4.258655   88.645027   42.702881
H   27.998180   55.562283   27.282036
H   86.028816   35.258854   53.369106
H   35.421707    5.144997   83.514236
H   88.509293   24.121635   73.162529
H   50.116909   47.126560   70.856529
H   84.161491   39.880772   69.488136
H   71.823669   56.087154   20.922508
H    1.728308   77.315628   57.489986
H   89.694878   74.549881   98.532249
H   11.553896   84.766663   72.120377
H   69.579849    9.470377   39.350372
H   26.254034   58.463730   97.665733
H   44.434307   79.600517   64.207214
H   77.250191   65.768997   44.939743
H   30.691015   33.564262   47.457977
H   52.039413   35.656868   90.217049
H   55.835735   18.249283   90.193619
H   14.033408   24.140865   31.513468
H   21.833326   44.677544   21.996954
H   83.078880   66.832542   78.054855
H   95.990860   94.864716   39.872196
H   76.315849   33.838089   22.777412
H   77.414337   12.384846   27.632149
H   94.063164   34.132748   70.165710
H   23.908506   55.770050   81.737999
H   87.531403   56.864445   56.137932
H   27.605738   59.484051   50.465847
