100
TIME:    5.351, STEP:  5351
H   55.455971   31.307320   94.247025
H   52.693275   94.825790   15.502795
H   71.736893   58.876236   60.534634
H   82.374756   12.188831   46.856995
H   47.242630    1.663742   20.617355
H   45.043537   95.410957    8.673368
H   72.523155   22.662403    8.908250
H   99.308243   51.530720   16.882336
H   22.090141   71.816528   63.261971
H   28.610804   93.215797   17.228262
H    2.518044   81.551758   24.314426
H   51.609680   91.908791   12.039209
H    2.608577   38.005363   93.319511
H   90.131676   88.582588   64.454781
H   45.587578   92.054855   93.554199
H   86.371262   43.711075   88.861053
H   93.811440   35.897610   60.510986
H   15.495160   34.456882   14.032690
H   28.612072    2.832624   45.272717
H   48.350342   92.179970   80.653603
H   46.740791   23.508217   12.009350
H   75.385925   51.187515   63.591202
H   14.300225   51.102882   79.251526
H   21.872597    0.841768    9.660867
H   38.200958   61.799774   76.058205
H   22.153444   68.471085   87.233871
H    0.655745   20.041752    6.137415
H   81.039680    6.206276   43.649124
H   27.523659   34.576237    4.228188
H    6.174908   58.402489    8.778015
H   26.650223    1.890600   86.024849
H    3.622718    4.671550    3.895176
H   47.274914   76.977867   79.857292
H    4.193480   83.335564   46.321510
H   47.760406   54.425552   50.565819
H   37.790546    4.541645    2.603327
H   93.029694    8.569809   30.103069
H   42.824886   61.030735    0.047722
H   19.204151   64.827812   25.760393
H   59.188236   11.240259   59.040920
H   69.548798   39.788216   68.412941
H   50.703087   52.014519   54.190655
H   57.332134   95.588303   87.982307
H   37.663944    2.459118    3.928917
H   92.496178   20.769440   14.009921
H    9.051401   64.978958    4.900195
H   83.539352   15.843427   76.830574
H   56.525188   50.483536   99.667519
H   21.445992   89.280273   31.019909
H   38.104298   12.176992    9.409012
H   43.136372   53.039124    9.835109
H   65.181023   67.207474   22.778442
H   19.867245   53.035645   92.091179
H   52.772675   19.895630   67.941307
H   14.740292   27.540747   45.861065
H    0.260364    6.904990   10.466141
H   35.481804   35.146065   64.912071
H   27.608761   71.551689   75.725571
H   12.299301   64.862068    0.683492
H    5.908907   39.084103   11.415413
H   97.245392   29.726166   97.190514
H    8.999659   78.135727   53.239838
H   37.339664   42.140793   66.536316
H   10.482722   70.912308   81.860489
H   44.713409   33.468334   93.884010
H   72.625633   76.259056   62.576210
H   58.247864   33.360950   25.408978
H   10.735671   23.566977   22.011343
H   23.594778   65.297600   24.626892
H   38.796562   17.281559   90.465454
H   52.114571   31.318497   97.957802
H   32.752983   73.935623   48.397469
H   58.096268   53.622581   24.548065
H   12.413975   10.754635   85.215630
H   20.164930   36.268955    7.039788
H   52.161301   50.522377   35.875217
H   52.791622   62.758137   85.683464
H   83.380035    0.831087    9.954526
H   18.113659   37.801151   77.385292
H   37.103500   17.523987   59.927795
H   15.582394   84.640213   99.806206
H   42.818588   79.172897   39.329941
H   56.338654   96.606995   39.546139
H   18.290567   70.055710   74.685303
H   91.779396   14.175975   29.032860
H   28.137646    5.604457   13.373021
H   24.535925   14.291641   78.699814
H   42.087791   76.881714   40.096169
H   66.731796   96.237587   84.426521
H   93.238098   89.120407   15.503294
H   43.007652   62.368626   46.465130
H   74.218712   97.926056   35.485062
H   28.462755   88.076942   32.805622
H   64.420570   37.812084   87.608910
H   64.075798   70.420372   39.045536
H   35.892273   84.426849   91.062653
H   37.864799   74.763664   29.448364
H   26.506681   61.798248   70.405418
H   53.803741   59.916355   96.833946
H   71.581192   41.318432   82.262054
