100
TIME:    2.914, STEP:  2914
H   20.260338   54.792656   96.478165
H   20.212105   62.738884   61.814228
H   29.843801   83.549149   89.132668
H   81.965714   12.593134   80.437439
H   69.070618    6.327451   86.694687
H   82.833504   98.051140   67.329887
H    0.248475   58.106049   18.331535
H   90.851639   40.699642   40.640461
H   81.996254    6.124147   16.660740
H   95.209862   58.224083   21.798418
H   29.201843   83.493759   59.057461
H   44.622406   69.754471   85.507652
H   57.901695   85.406219   35.501205
H   10.796885   96.094093   78.997078
H   15.945564    9.737237   10.698327
H   84.358398   56.860016   91.153664
H   89.780525   74.708374   38.661266
H   63.415771   52.992867   98.520203
H   90.652977    0.597400   16.883867
H   14.011826   43.932369   14.731256
H   91.355835   66.120331   78.150848
H   41.748367   47.952362   71.124268
H   46.837929   70.922844   48.977859
H   48.299347   71.630554   90.654366
H   25.362274   55.065376   58.061493
H   33.297520   40.781353   16.042448
H   10.800957   21.345030   57.791599
H   86.667015   92.455391   63.095608
H   74.532761   13.473033   19.425783
H   12.729432   18.718857   15.043293
H   30.738737   83.359375   78.832542
H   49.748878   71.999077   29.500465
H   75.616425   55.280006   60.313087
H    1.224051    6.672071   48.988388
H    8.336747   38.644165    2.171882
H   25.915562   13.394331   10.622994
H   59.288742   97.817856   38.077023
H   43.549637    5.619673   28.074482
H   22.071213   17.925806   61.923935
H   88.727158   39.384354   67.302773
H   36.100048   56.168049   10.998679
H   69.727440   42.640778   39.702866
H   36.340824   80.974335   11.955234
H   93.281006   61.611366   65.648521
H    3.888079   16.920681    5.469455
H   40.492992   18.496876   95.001259
H   64.500290   83.310577   53.432396
H   56.395039   25.385660   48.879723
H   50.207199   91.112419   28.232882
H   86.997337   75.096779   79.855255
H   43.322300   88.315338   84.141586
H   46.747181   93.341583   82.763329
H   69.325813   38.905090   33.628510
H    9.213787   59.665703   60.403107
H    8.775532   13.959373   25.133135
H   97.212296    9.469477   93.427368
H   80.986366    5.464459   33.133186
H    9.074000    1.695946   38.498611
H   20.098099   61.892437   87.774010
H   66.723557   51.768528   80.729500
H   43.518379   43.056973   87.197525
H   95.491051    0.819142   63.507332
H   71.892784    8.436697   33.648758
H   43.138786   57.645935   48.027287
H   47.984707   28.107353   66.937248
H   22.333412   97.409370   18.483097
H   53.773018   49.106007    7.749718
H   79.075783   84.191589    5.508651
H    2.134233   40.404869   77.472115
H   89.422668   94.708076   95.597076
H   29.500530   97.130745   27.193863
H   33.694763   54.815155   69.972198
H   16.993322   74.167046   87.031731
H   66.064568   64.977219   30.020866
H    2.668095   32.792095   22.299107
H   94.544914   94.332512   99.855011
H   31.526934   73.981339   42.585270
H   68.885345   60.182560   75.370071
H    1.250968   44.959393   50.193130
H   56.617317   50.252041   69.877518
H   67.905441   59.428326   54.151508
H   59.965851   63.258194   43.110939
H    2.167761   55.896423    7.443992
H   50.628208   61.516327   97.268555
H   10.441400   66.613403   65.272820
H   84.225525   16.089672   44.140285
H   61.774193   91.481377   62.494080
H    2.864130   71.992554   65.438667
H   16.156376   31.924742    4.359513
H    8.701353   89.384842   28.386761
H   43.275513   30.779808   95.000076
H   93.897568   14.655729   89.048668
H   72.247681   14.950676   44.348534
H   28.876873   89.988365   23.295094
H    6.208218   88.710999   83.047905
H   34.606064   80.660896   16.937317
H   31.302357   34.908901   69.602745
H   17.563528   41.048645    9.409843
H   69.897240   49.411404    0.958927
H   20.211199    3.856969   17.024408
