200
TIME:    0.490, STEP:   490
H   17.153204   61.645298   19.614422
H   30.192545   36.527878    0.046182
H   12.897870   80.080612   57.662041
H   26.269650   79.895821   37.962257
H   12.555829   90.065460   50.064102
H   81.485657   46.029602   58.149673
H    6.981277   55.126747   54.490307
H    8.490987   99.681976   16.198391
H   97.581291   83.758286   41.620670
H    2.060763   71.396996   86.211464
H   20.907503   99.934761    0.861905
H   31.811584   48.695702   24.654211
H   17.310116   95.304848   51.045403
H   92.587303   54.261700   54.312618
H    7.551853   73.869102   42.363472
H   22.013363   15.665730   48.929977
H   95.968124   19.427235    3.294159
H   30.625668   95.185242   39.069569
H   73.343369   20.651070   46.164062
H   90.851616   76.271446   27.779484
H   61.085335   89.238037   14.386879
H   84.463387   58.370186   60.940674
H   87.518867   60.723755   43.137596
H   13.903508   90.338463   90.802162
H   14.112813   22.758635   36.489681
H   18.454145   73.431183   98.699638
H    3.737102   63.813084   59.133591
H    0.247609   80.442467    1.389092
H   21.598110   48.930855   36.874474
H   81.752197   27.461523   89.977982
H   13.035097   61.893894   16.500465
H   27.379887   69.365707   99.758141
H   21.082726   14.364977   76.232819
H   88.152473   63.850670   42.660034
H   35.991215   79.470810   32.317463
H   24.894943   44.221840   82.343224
H   93.439911   69.033112   87.831764
H   20.549053   51.222179    3.926960
H   43.817703   37.448475   49.988693
H   87.685211   38.660427   53.930756
H   80.578697   93.545288    9.822347
H   25.782854   37.864540   32.418228
H   72.200516   82.038902   59.611347
H   36.724319   75.376076   27.689508
H   37.318886   83.922638   53.385674
H   37.541687    7.332293   45.406803
H   84.685303   13.964102    1.660469
H   84.029472   65.546791   38.660233
H   96.748718   19.265011   61.346577
H   53.170979   18.929701   95.135849
H   72.261124   67.331825   17.961010
H   11.581457   40.000957   68.916634
H   58.918892   87.269814   11.197346
H   18.685833   87.459427   85.405327
H   66.616928   70.825012   82.688103
H    2.100832   66.191231   86.834564
H    4.717016   17.691505   46.972858
H   70.139999   64.391083    0.791242
H   22.905912   79.306870   13.173018
H   37.321163   94.585365   62.372726
H   49.609848   10.498838   34.932312
H   94.429253   17.017115   50.982414
H   78.334747   30.385397   76.450623
H   30.183300   65.509010    9.249268
H   75.367157   79.806030   28.152514
H   28.932917   26.273821   37.357010
H   76.836769   17.888645   91.000221
H   95.941429   92.018318   92.221123
H   25.415022    9.231639   58.815514
H   43.797871   45.987324   50.969242
H   58.355492   80.916092   79.968506
H   25.114304   17.250540   43.014835
H   85.428360   29.985149   91.124405
H   16.009981    3.469522   67.850624
H   82.189163    4.918498   55.857727
H   59.632805   10.250503   61.243828
H   94.370911   39.257103   68.609352
H   17.295540   10.522303   39.418800
H   13.431232   40.831486   29.401424
H   64.509079   89.272675   82.405548
H   53.978680   25.876795   97.422180
H   37.629230   64.094627   80.128654
H   10.024343   16.408590   82.965034
H   16.521582   70.034492    1.999645
H   30.005669    1.967487   50.697350
H   31.710575   77.027222   22.578621
H   47.059937    3.305054    2.344470
H   73.252480    9.239647   20.871643
H   73.337662   72.665741   78.071167
H   22.191956   97.252831   52.115108
H   30.762951   37.050961   79.642502
H   82.314018   90.728912    3.822788
H   59.135799   14.042561   88.609695
H   48.817425   85.451942   75.969215
H   31.459682   53.544472   78.351997
H   58.918983   33.298782   17.307169
H   82.696861    5.632175    9.096077
H    0.022042   32.323463   50.960590
H   31.353081   67.273682   53.767212
H   71.551277    1.989734   27.311441
H   21.020292   87.338623   80.711952
H   99.868721   80.438843   64.485588
H   28.361662   28.033545   33.996357
H   33.888786   68.401062    0.090122
H   25.007338   24.187325   33.192814
H   97.320335   14.532949   32.186325
H   77.501030   33.200993   55.095749
H   63.278255   43.873108    9.074514
H   79.149940   36.933945   11.221363
H   12.397624   24.574709    6.760828
H   50.483765   93.894310    0.971744
H   96.032333   69.632019   93.358833
H   52.751961   83.175735   88.497520
H   62.377312   14.007656   68.507141
H   55.507515   92.378876   18.006962
H    3.835848   98.483803   90.212540
H   22.296238   11.962960   87.094528
H   39.502728   39.301739   28.981255
H   28.356646   67.099670   71.183853
H   77.380150   51.664486   58.668739
H   43.163826   23.420734   79.327766
H    7.502092   21.557713   55.541946
H   38.263618   11.278637   31.445398
H    0.393935   58.322464    6.917313
H   69.435753    2.762184   84.544777
H   56.881435   69.192413   20.704363
H   89.172493   50.357224   61.399765
H   69.960304   89.530724   37.114010
H   95.544273   43.434254   79.193016
H   79.862579   22.964405   70.760719
H   58.700737   76.259308   12.965252
H   72.104134   88.530930   15.222600
H   91.621407   94.757896   99.234818
H   88.662033   19.412785   52.784237
H   16.776356   96.849731   44.928925
H   55.699524    1.305999   79.998512
H   69.306610   87.201576   67.784111
H   93.350761   56.415127   79.248253
H   52.847809   47.829803   71.490959
H   43.583366   97.099785   88.510925
H   62.994442   55.716789   22.985626
H   45.729355   48.606842   52.074795
H   46.968887   61.362469   90.951859
H   46.257545   17.478132   82.267189
H   52.053112   61.475830   57.243443
H   55.100174   66.282974   17.872787
H   50.644035   95.682976   45.491848
H   35.826042   64.112740   67.390648
H   71.868622   54.354385   95.459183
H   17.431164   91.404213   80.641388
H   67.408272   65.555710   49.456875
H   44.311165    0.192312   40.317894
H   87.789597   22.490673   94.688538
H   16.518597    6.881123   69.774620
H   23.525982   60.481327   65.276222
H   70.923592   44.148792   61.752342
H   61.928143   68.380981   83.715988
H   49.600410   32.648743   15.581123
H    0.939786    0.792343   93.333488
H   60.876827   46.743317   87.835037
H   56.411659   74.252754   76.768776
H   31.866278   21.760735   33.378181
H   75.980614   23.670036   37.128101
H   20.451288   27.523907   60.502693
H   56.560463   30.571295   12.280972
H   16.220966   56.484699   60.935207
H   70.594948   93.523384   54.871960
H   23.850605   42.307037   58.350544
H   97.469948   27.357203   36.266609
H   37.881760    8.573108   87.588104
H   74.588989    8.606898   35.955093
H   37.526466   56.161331   58.225822
H   42.503304   66.712051   83.389725
H   68.147476   68.558113   80.039520
H   59.818298   93.155899   87.476433
H    8.625962   49.011253   23.526594
H   32.849499   60.730789   97.365959
H    3.945685    9.439278   68.076920
H   69.208138   15.567855   66.210876
H   74.408211   57.136833   89.911690
H   76.853531   94.148232   35.906654
H   24.270220   30.411221   78.742828
H   54.124805   89.904831   11.019501
H   56.925163   25.683018   86.387520
H   88.755920   77.491104   77.366867
H    4.494089   38.333298   85.205421
H   40.057129    0.242262    4.804544
H   78.410477   77.814156   34.274246
H   99.378517   62.288250   69.400620
H   54.159737   56.913372   68.861588
H   59.763134   22.753128   77.516182
H   45.603470   91.723175   21.440069
H    9.653562   23.471615   63.533028
H   30.735876   73.508469   38.351543
H   76.315353   43.088764   20.998508
H   75.938492   10.996897   26.141251
H   11.123057   92.376274   11.904889
H   21.643923   92.437538   39.916199
H    8.579503   12.311415   66.836189
H    5.400271   26.522850   94.275513
