100
TIME:    7.393, STEP:  7393
H   17.363939   44.047188   92.377518
H   96.300705    5.478693   44.257877
H    6.849799    5.786360   36.558208
H   82.717499   28.059540   34.926983
H   28.951323   65.338890   65.250626
H   13.371299   93.198708   10.899349
H   65.501312   60.549702   68.595383
H   38.811073   28.190464   29.393021
H   71.893822   75.486542   34.723614
H   72.830574   22.537523   97.183601
H   12.576172   63.715977   27.618654
H   73.672119   94.263687   66.687248
H   72.322624   14.497400   90.410683
H   89.024391   82.288582   19.850315
H   70.401375    9.653618   95.373810
H    4.266210   65.110168   19.357328
H   29.606117   70.959305   46.402309
H   59.163677   35.095505   43.246796
H   60.410099   88.498199   52.852581
H   93.338211   48.812870   19.682383
H   25.565613   20.220551   56.582264
H   71.154449   53.898300   89.696060
H   87.034996   34.495430   20.827948
H   32.141312   25.269991   58.006187
H   65.168159   99.857208   91.138893
H   12.748699    8.156750   95.168144
H   24.571905   35.158417   46.658115
H    8.742284    1.519958   11.144948
H   71.924446   19.842817    7.701541
H   84.473999    7.862860   71.110954
H    7.015562   85.000137   24.468376
H   32.555691   48.249088   14.856987
H   91.109749   27.574915   63.816780
H   90.473198   96.198463   60.295792
H   96.964165   99.916222   74.848572
H   15.298664   64.480301   96.183388
H   88.883896   33.788696   91.004913
H   58.424362   23.656178   44.144287
H   33.011395   20.335592   27.875408
H   66.854576   20.075167   19.699976
H   29.991903    9.856168   16.520353
H   77.172127   70.594803   57.384525
H   74.911407    7.836306   35.477688
H    7.276487   36.733727    3.584276
H   15.368179   40.201580   88.748726
H   82.694511    3.926353   13.196131
H   99.492477   26.895035   96.429237
H   56.638851   71.515488   26.014462
H   81.134468   20.162098   49.565277
H   80.957275   43.259624   66.614845
H   42.993954   55.897217   31.358921
H   64.428406   77.723663   88.732239
H   62.227154   64.875854   73.495796
H    5.489731   86.579803   58.048782
H   52.153458    6.491642   63.231899
H    2.803732    4.757005   40.951630
H   64.934494   76.224449   59.123283
H   75.557785   78.709618   23.128798
H   73.344780   51.148319   43.925011
H   71.156075   96.037949   53.336082
H   26.056963   34.763115   37.979279
H   36.525917   59.129074   60.846069
H   75.972069    2.797603   26.510254
H   50.704449   82.035873   26.419048
H   25.762905   70.378571   84.046638
H   47.183685   74.745445   83.315704
H   94.413849    3.958675   23.996603
H   69.680641   40.351433   19.630753
H   25.367836   18.572495   96.555817
H   80.172752   19.976366   86.163162
H   87.270760   92.382095   73.467262
H   64.470802    6.122798   97.950752
H   24.954023   52.623562   72.194641
H   67.456551   81.516052   63.886566
H   18.599466   39.200985   61.843922
H    0.429671   81.395287   98.474892
H   38.225300   85.917549   21.857092
H   79.316910   67.311394   22.726892
H   16.035330   31.803150    0.162200
H   36.964859    6.287397   84.007698
H   55.545097    5.766335   21.852402
H   96.061836   92.415375   68.504967
H   85.498940   30.755163   34.015205
H   58.774952   44.794430   88.181023
H   92.352081   86.444603   31.083876
H   81.141708   80.612228   55.175598
H   60.916538   65.821144   76.070091
H   74.928795   13.478304   18.924004
H    9.108590   82.542091   67.725594
H   12.697917    5.106312   88.498917
H   26.574757   72.631248   89.588425
H   25.306032   51.503418   74.390541
H   59.359028   49.346943   90.716621
H   61.770294   61.697594   25.297403
H   28.772564   87.509537   85.970154
H    4.553091    3.791023   85.590721
H   75.780876   91.948990   12.010448
H   24.007120   52.264027   30.467741
H   56.527550   68.726967   25.795933
H   98.419838   88.917740   85.549149
