200
TIME:    0.199, STEP:   199
H    8.211292   62.611065   14.638502
H   27.598850   32.279613   88.232742
H   18.997046   67.343590   43.328728
H   16.460455   76.494545   45.571835
H   15.645451   82.690109   54.247982
H   90.952393   53.927799   66.763115
H    2.765225   55.333221   48.857777
H    1.969840   87.115906   26.527657
H   85.763412   88.120888   48.719612
H   12.304485   75.473198   97.689659
H   10.764586   93.718330   91.666031
H   30.608261   40.928493   10.788691
H   10.167880   85.647179   62.972069
H    6.341667   53.033955   40.290127
H   21.601379   71.628967   43.079472
H   30.495461   27.655670   55.207462
H   82.278656    5.798288   17.422663
H   37.535786   81.196053   44.250298
H   63.661282   31.186255   41.880276
H   89.925812   80.267723   39.060085
H   57.593033   74.711571   27.718868
H   90.941795   47.247215   72.154671
H   96.232971   62.839561   50.119980
H    7.740280   87.686012   91.714203
H    1.464389   11.054976   46.873341
H   18.695032   60.516846    8.310682
H   98.101860   57.974079   47.433380
H   93.569366   68.438095    0.623390
H    9.341752   57.775948   38.578442
H   94.902168   19.666008    0.044158
H   13.415021   49.736332   16.144686
H   32.671623   62.545395   92.593704
H   28.113953    8.103311   72.678352
H   97.783501   63.533188   37.573662
H   49.955982   91.495163   34.530956
H   34.400532   50.856770   79.006332
H   85.087692   75.313927   85.647133
H   34.942978   43.694748   17.010881
H   54.587669   47.868767   43.520275
H   90.475945   39.857090   65.297943
H   80.492111    7.139050    0.163401
H   11.298571   43.966633   41.046856
H   77.440079   88.723785   48.805859
H   37.372604   61.242794   17.281982
H   27.376186   75.044243   42.884346
H   41.636761   14.905515   42.241974
H   79.201523   28.220860   95.280006
H   91.113983   65.551231   49.121597
H   85.494759   30.308056   61.136772
H   63.584610   17.616480    7.447029
H   79.183563   71.015060   29.493599
H   22.705427   34.992290   62.660000
H   51.071156   95.595566    7.391822
H   23.016798   81.318481   81.096008
H   78.934341   77.296761   92.099335
H    5.831245   73.360107   77.305664
H    5.547493   16.590309   50.094395
H   66.960739   57.626278    6.043439
H   29.046303   73.685440    6.134854
H   44.051559   96.219398   67.752159
H   50.552303   16.176327   43.434391
H   89.200035   16.327757   48.751968
H   70.317772   24.357124   86.268143
H   23.132647   65.093842    2.752099
H   70.689293   75.467850   16.253044
H   40.347988   14.968268   32.126328
H   87.706642   24.026815   84.988045
H   97.571022   91.356712   86.459824
H   15.064136    5.299191   62.498749
H   45.472977   40.915382   50.984783
H   58.483150   75.883003   72.184647
H   33.292709   24.899525   45.051826
H   76.192520   24.954281    0.868610
H    6.529646    9.865884   59.379120
H   78.645798    0.207886   69.540535
H   52.277435   20.524109   63.145390
H   95.600876   28.423864   72.725517
H   28.073832    5.223351   49.369530
H   11.218849   27.866722   35.846531
H   68.893883   90.895607   96.206024
H   41.627964   30.794991    1.742204
H   24.833685   69.327530   89.124718
H   11.159674   13.216565   91.479324
H   26.011074   60.518913   92.515228
H   40.368237   98.890305   58.944111
H   23.512102   87.208847   28.636311
H   34.017643    2.698674    1.677331
H   75.672447   20.070286    9.895759
H   64.433891   71.948692   77.017120
H   23.649487   84.209427   55.316570
H   42.961529   34.538857   80.936852
H   84.341019   88.175735   97.473221
H   45.312012   17.324503   96.897530
H   61.866379   95.906647   67.978882
H   24.085997   57.480804   66.232178
H   70.969978   26.792622   30.989422
H   78.749428   15.697275   96.563438
H    8.021809   27.801603   48.205379
H   37.946938   70.188744   52.735950
H   66.491547   97.261108   27.240396
H    8.037003   79.292786   67.009163
H   89.047691   76.036278   66.090759
H   22.329504   38.668289   29.929861
H   19.905777   67.863785   88.534218
H   25.393089   28.011539   23.758270
H   85.799957   28.780231   45.810299
H   63.716099   29.587690   56.450043
H   64.992683   32.700184   20.326981
H   71.754608   40.607189   97.150032
H    3.049674   28.632040    5.336600
H   46.655109   96.423065    0.767004
H   84.347664   62.314137   90.044144
H   57.806141   79.798882   94.827179
H   63.363060   20.281256   76.011261
H   65.218468   80.261276   28.210234
H   15.711727    6.996763   77.084770
H   34.260647    7.865385   83.702133
H   40.979130   24.978416   34.798058
H   17.305275   56.174297   85.566010
H   69.700638   45.856564   47.813297
H   40.126656   21.486980   88.863327
H   20.058167   28.451290   46.982143
H   31.247931   23.551754   22.812885
H    4.681377   68.794327   19.660627
H   78.143196    9.967227   94.169144
H   46.220257   61.230553   26.323017
H   96.405754   48.998489   72.638184
H   76.325485   87.248405   34.656300
H   91.963165   53.967773   85.824615
H   65.757942   24.343676   65.803116
H   46.953903   86.649628    1.844514
H   83.273727   85.644730    8.360105
H   92.571632   80.599976   97.070168
H    2.931021   11.951735   49.202381
H    2.400650    2.111455   58.300911
H   63.450081    1.679470   84.285629
H   68.824837   86.460045   53.297607
H   90.868629   65.500923   83.846191
H   45.241562   43.760262   71.559784
H   43.425735   11.056341   96.596725
H   48.587864   64.274406   13.585566
H   59.125763   39.765079   45.291115
H   56.323505   56.006348    0.767139
H   59.591789   28.011877   77.445015
H   38.374744   71.126839   47.727863
H   44.437885   61.269260   31.809803
H   43.761559   96.957344   47.575462
H   43.771973   74.944870   69.060204
H   64.089203   66.503952   98.352043
H    8.154556   88.226730   91.531693
H   77.665382   60.613644   51.653717
H   32.061466    8.244152   49.437176
H   74.271080   33.371647    4.903954
H    8.826060    0.201642   76.965698
H   11.986732   52.796265   60.011395
H   62.284973   43.427242   52.799572
H   58.882092   59.654106   80.270309
H   45.463154   37.317726    8.763586
H   14.258283    1.888819    4.125364
H   64.139297   58.616699   76.667664
H   53.553211   86.075073   84.506012
H   45.529110   23.268774   35.899166
H   63.454510   36.357471   37.249100
H    9.769734   18.975204   72.953003
H   59.346756   20.697161    9.421691
H   11.207303   65.743645   62.525948
H   75.605835   98.230110   51.787056
H   23.596397   29.067150   46.317310
H   93.515854   28.303543   36.953747
H   24.601910   10.769117   90.865051
H   80.148254    5.146234   35.979515
H   47.579323   66.969849   57.332211
H   36.880764   79.215958   91.577652
H   71.728569   75.527115   73.294296
H   73.343475   95.344971    1.159153
H   99.641502   47.439384   23.247410
H   35.838936   51.640369   85.192856
H    1.366630    9.161758   64.355942
H   76.650093   22.332682   69.614372
H   88.250870   54.015297   85.806625
H   82.166359   83.720169   42.672573
H   18.400688   30.055996   68.119392
H   67.522614   90.208298    5.258554
H   50.588173   25.144405   75.681938
H   84.992760   90.112679   78.565750
H   98.402092   35.877808   83.749001
H   29.924461    5.226873   98.356766
H   92.390785   65.487862   24.091944
H    7.805708   60.990570   66.074829
H   48.868000   58.496342   65.185013
H   45.861641   32.380825   79.594246
H   47.989025   83.814987   25.146616
H    3.189767   16.548620   56.867016
H   35.819889   61.894642   32.487007
H   86.301605   56.086655   21.950399
H   75.228043   10.282840   30.128092
H    9.188748   84.441444    2.082915
H   30.101044   98.221039   48.122997
H   12.460054   11.497173   79.850731
H    8.435380   36.381752   98.318413
