100
TIME:    6.129, STEP:  6129
H    2.843484   59.961632   93.534744
H   31.206264   36.985691   64.560036
H   85.115891   14.848830   51.399639
H   82.505341   80.135101    4.210736
H   40.274155   64.023804   99.523819
H   32.976322   94.568092   85.721855
H   31.749786   75.197746   69.748863
H   38.158981   18.838734   45.449879
H    2.965396   97.014923   14.287787
H    7.355513    4.387050   47.692875
H   30.150375   12.856020   49.372810
H   21.913528   30.905537   56.659981
H   52.962662   90.957222   16.013359
H   51.609184   86.184578   23.659489
H   55.048836   22.560333   56.158024
H   55.090286   75.664223   24.280621
H   31.249489   87.356621   31.335394
H   32.132793   96.602097   87.062538
H   40.727604   35.472748   86.261734
H   27.391495   75.655067   33.623405
H    0.573180   46.056484   90.891945
H   49.973541   52.220322   97.337341
H    3.911610   44.775459   56.992767
H   49.585918   10.148897   51.881168
H   10.376550    0.098495   81.803932
H   18.606882   45.471519   14.074139
H   33.568092   87.701797   21.575232
H   15.394843   42.520699   69.367142
H   44.440315    5.163085   67.451050
H   36.005497   39.147179   70.626572
H   57.271820   71.654152   24.471962
H   52.746006   83.173691   31.871803
H    2.074986   20.055426   49.945679
H   37.067192   12.036391   13.546419
H   28.421448   95.613716   97.941193
H    5.421382   65.478325    0.156609
H   67.649025   80.077759   91.406654
H   10.670668   46.791065   54.947048
H   86.365143   47.875542   50.366478
H   85.909988   38.406826   20.251009
H   16.377949   66.481468   86.742287
H   83.695175   65.638016   92.856163
H   64.033478    0.253830   44.177925
H   87.986511   15.517904   79.996666
H   25.010742   90.073441   80.585190
H   99.011406   79.818130    8.060938
H   89.617477   58.154007   84.297646
H   56.566738   58.496689   47.805698
H   44.185539   24.846260   99.984543
H   54.421696   24.018732   54.992966
H   43.080746   77.927963   18.036350
H    2.991003   95.013840   71.705391
H   36.006329   57.546753   46.906620
H   34.757919    7.200263    2.273032
H   52.795036   95.720825   52.479336
H    1.229421    6.086610   83.981171
H   84.803780   12.697146   38.906425
H   69.677643   98.078758   55.686752
H   73.657333   97.733803   40.958778
H   54.566978   98.882507   89.287254
H   46.322956   93.545425   36.530666
H   81.387733   70.894211   18.035385
H   90.158241   89.050819   13.186523
H   63.908485   75.150375   60.740459
H   75.594467   71.331985   66.336098
H   24.832073   37.582237    8.577914
H   95.826920   60.255466   62.970413
H   56.993828   68.061317   59.204243
H   62.372501    9.395470   75.833160
H   54.555763   56.414307   88.827209
H   27.409763   78.383759   88.626930
H   68.602127   48.115463    5.358077
H    7.368608   15.141640    4.598282
H   95.287849   61.513386   38.988640
H   57.673359   37.378925   66.017838
H   70.553825    0.383622   83.525238
H   23.428078   95.324806   99.442345
H   19.931896   49.960709   52.922623
H   55.419338   35.515919   86.063240
H   98.953629   75.143867   92.902428
H   30.807344   92.688980   46.304676
H    1.211445   84.218216   74.250084
H    5.546859    9.617219   13.637949
H   71.814125   36.631248    3.628306
H   53.897957   65.514030   53.614548
H   10.229733   34.181961   67.399551
H   76.496773   57.724556   15.797873
H   54.600182   14.624537   32.029594
H   82.876816   52.919075   78.063484
H   24.452478   57.114002   43.313637
H   74.846581    4.380706   62.895061
H   31.782831   56.438568   50.306427
H   78.334244   11.418843   92.969559
H   39.611523   85.012520   40.068008
H   50.625572    0.730303   56.923771
H    0.151826   53.703827   50.878174
H   76.111259   19.411009   84.704758
H   26.446939   89.721649   55.840225
H   16.741425   63.270008   31.669228
H   19.907427   21.355194    7.313974
