100
TIME:    3.332, STEP:  3332
H   91.993073   16.459831   96.095474
H    8.584185   85.400711   88.181595
H   37.028816   13.621539   84.227852
H   82.035873   95.370903   57.526134
H   65.326630   39.831997   75.360672
H   76.353279   97.598289    8.724735
H   78.339470   86.330132   51.019676
H   57.997665   76.861832    2.260086
H   71.721016   65.935165   90.349281
H   83.786552   64.225945   38.167999
H   90.320511    0.312994   18.794714
H   28.667404   90.706772   55.753471
H   31.314236   60.116760   93.955528
H   90.100121   94.805702   10.806087
H   21.030563   72.399704   90.605934
H   67.551910   20.300323   56.456398
H   56.167549    2.357548   76.713455
H   72.345421   32.665627   84.028992
H   97.165092   18.134027   38.904514
H    2.751160   35.057140   43.190666
H   66.551117   24.506096   66.804077
H   81.822433   48.507263   35.527679
H   41.257027   67.523277   37.018784
H    9.462646   76.643799   59.611340
H   10.413131   21.914818   61.147377
H   31.380362   28.327497   76.862251
H   74.757401    3.968830   66.085609
H   51.396854   11.966187   76.910942
H   83.621658   51.396927   99.667641
H   28.756351    8.372870   48.272766
H   47.191113   20.842684   45.761711
H   76.141762   60.449188   90.804146
H    5.058479   24.697044   97.969826
H   18.886147   68.364845   31.378307
H   97.945816    7.046466   27.623985
H   62.259518   46.231457    9.185498
H   99.381569   82.510239   71.013908
H   26.274353   97.970161   57.570347
H    4.426437    8.819368   21.416571
H   49.355877    0.252046    0.188645
H    7.533568   70.510818   20.846174
H   32.159996   61.402176   59.341263
H   39.941303   83.480957   42.147320
H   66.588348   68.615692    6.519607
H   67.628334    0.429193   41.239437
H   35.100246   26.469593   96.697853
H   67.765915    6.042733   57.447456
H   56.417362   29.689333   74.743217
H   62.424591   56.492386   11.558528
H   95.760948   81.455818   50.619167
H   43.290409   47.960632   88.548904
H   67.061661   54.555130   55.323414
H   77.993752   41.328796    9.351479
H   99.534752   52.844246   78.848785
H   75.494339   50.592415   28.687372
H   97.735306    9.029715   79.197662
H    7.486997   93.403038   72.888344
H   77.948723   62.221375   27.731621
H   53.063690   79.553604   55.684589
H   39.140831   83.896606   68.840584
H   69.885750   23.619377   54.605976
H   80.655418   96.928299   44.592857
H    0.269292   79.913261    4.985245
H   71.842888   59.919754   36.677326
H   64.577415   94.722359    5.863481
H   96.655281   76.629280   43.197647
H   20.236019   63.555759   27.931849
H   50.201790    8.097423   25.491468
H   22.968102   10.370049   51.256268
H   97.892883   15.732182   94.716888
H   16.225956   68.690468   22.179024
H   99.229050   40.942627    0.574706
H   89.738480   53.490627   76.316399
H   56.864346   38.523857    5.178698
H   22.821108   33.388454   53.986362
H    4.425879   21.122213   71.727264
H   69.479774   37.750999   49.977573
H   88.523743   32.848896   98.452682
H   21.294859   43.731594   54.858765
H   36.117867   27.485466   33.866348
H   76.082260   63.752728   79.134811
H   91.327744   65.988052    8.157457
H   28.614454   62.874146   47.256382
H   79.385910   97.285126   59.089218
H   90.088120   40.466396   24.752281
H   74.607239   31.443531   73.167358
H   89.691460   61.089378   82.425873
H    9.591509   38.526276   61.090889
H   24.832287    8.652128    0.939647
H   71.745667   72.189285   43.328018
H   60.381775   53.349064    3.827550
H   24.827021   46.090523   97.015007
H   99.042389   27.493422   76.673119
H   69.278999   15.342663   51.477547
H   98.980690   51.270031   92.653435
H   69.131119   64.154182   95.346611
H   98.124237   58.897213   45.563408
H   19.097479   44.607666    2.721531
H   49.984581   51.213238   65.947929
H   46.173557   93.129890   76.758011
