100
TIME:    4.252, STEP:  4252
H   29.776402   32.091187   95.253189
H   83.045906   35.273575   46.208420
H   52.842720   79.810143   73.432564
H   82.190292   57.468071    7.095750
H   57.086273   13.574054   50.414993
H   62.089642   96.601585   99.835411
H   30.123440   48.453793   22.964945
H   85.687477   56.453091   17.788937
H   49.105659   77.480881   32.438351
H   58.644341   77.435783   74.194763
H    4.744339   37.330830   30.175652
H   93.552452   36.821281   90.267433
H   72.738235    4.462807    2.521996
H   44.546532   91.970009   80.819351
H   32.222359   90.221863   46.383167
H   30.561417   39.833672   80.087830
H   82.186531   63.206013   60.464684
H   91.998741   87.925774   52.131847
H   11.494698   56.731743   87.374390
H   77.960686   15.520182    5.828531
H   11.957001   32.917416   41.836555
H   70.023727   49.728577   57.181198
H   28.973701   60.040977   10.694884
H   23.984657   87.677734   91.282181
H   77.508453   48.955322   67.941811
H   27.163305    0.953658   90.579781
H   95.423912   65.728592   84.335121
H   73.769806   54.908691    7.318701
H    3.626173   34.866360   56.177650
H   64.033737   85.602470   21.410244
H   83.398598    3.341109   72.974236
H   34.230968   35.033234    5.635103
H   69.863503   57.385612   80.850693
H   57.758789   84.052368   92.621849
H   75.077774   37.501610   83.645432
H   42.256458   18.464100    6.060580
H   87.621078   48.818832   43.506214
H   88.249306   81.138496   22.493694
H   65.596436   88.774529   32.261467
H   62.701607   14.124995   72.573669
H   44.657303    2.082058   42.520977
H   49.475601    2.689023    2.564398
H   47.865803   88.997925    8.600737
H    7.840400   84.029510   96.473022
H   87.826042   64.126770   19.965914
H   23.231045   44.017200    0.432654
H   74.953415   56.076256   66.282616
H   56.466496   39.164185   31.667564
H   89.321152   80.298798   74.861359
H   15.054744   95.451790   86.274025
H   43.220219   59.140419   98.249222
H   11.772043   69.186279   94.925232
H   97.071510   46.663269   55.920818
H   78.224937   37.830513   19.445263
H    2.243867   31.223314   36.512119
H   98.886429    8.061087   47.878693
H   65.808701   66.857018   60.388039
H    9.443032   75.338615    4.032709
H   25.623030   18.426174   85.055031
H   78.430176   54.611858   42.673592
H   27.920408   80.833885   82.876320
H   48.002831   88.365067    2.963368
H   62.730000   17.134109   41.898064
H   35.016472   64.925629   11.696552
H    1.090600   21.243446   91.538994
H   40.137947   30.893196   97.595230
H   46.422867   95.365967   72.348679
H   86.650932   60.713760   69.472786
H   68.822769   44.264725   93.553955
H   16.532259   62.007507   92.779633
H   87.011711    6.093468   11.141579
H   23.370594   10.409469   67.934441
H   29.753607    7.986172   52.729057
H   36.607388   80.305077   50.514366
H   67.175667   34.701015   23.728674
H   26.177103   80.086632    9.824368
H   53.009560   58.012211   66.247719
H   31.747021   72.693642   49.262863
H   65.409767   41.029263   65.126854
H   90.998993   77.381584   54.607597
H   94.079086   73.270554   34.120434
H   60.358765   71.996353   31.228357
H   86.820625   78.231812   34.882030
H   42.680679   76.011787   75.061905
H   45.292587   82.919807   35.568619
H   53.434299   65.239906   37.055099
H   51.136192   94.197876   26.295408
H   24.398180   64.868843   51.523933
H   43.925400   57.427483   93.414925
H   90.404526   34.337105   76.214844
H   98.031921    3.028103   23.256266
H   92.901367   15.273212   14.546679
H   58.014931   55.099319   47.818218
H   58.200573   71.149124   13.509554
H   83.075539   68.862175   13.793643
H   45.119370   27.824020   47.827690
H   25.098446   11.694064   92.652267
H   22.473639   52.440918   87.996529
H    6.157714   55.178997   88.887047
H    3.320058   69.517830   88.131454
