100
TIME:    6.601, STEP:  6601
H   70.923660   16.677359   93.102615
H   18.172176   62.564121   94.319313
H   93.232712   48.806053   45.857586
H   82.584564   60.689301   78.340210
H   36.046494    1.856669   86.725601
H   25.655338   94.056740   32.465084
H    7.012516    7.067945    6.659935
H    1.060712   59.671314    2.111239
H   91.362694   51.634186   84.577629
H   94.462654   11.164932   66.173592
H   86.246094   31.847937    3.908135
H    3.897356   54.564594   23.062439
H   22.843277   62.414906   69.112968
H   28.238503   84.729744   59.580204
H   60.781746   80.398979   33.460453
H   36.112625   34.381508   85.100098
H   93.293861   18.576237   74.303413
H   42.226604   73.634445   70.699257
H   48.077396   55.275055   11.129252
H   14.676102   65.629677   65.759392
H   72.564026   99.066193   78.079323
H   95.224640   52.846909   57.142151
H   97.609337   40.936714   43.488739
H    5.729515   15.795382   16.825491
H   93.495308   62.668785   85.289772
H   16.455240   31.517357   69.687950
H   92.867180   68.083145   30.941626
H   75.568008   64.552071   84.966995
H   54.703377   47.986156   45.138794
H   54.104496   27.465294    8.149452
H   75.847466   13.980355   87.128899
H   82.548492   70.130600   88.176445
H   35.322460   85.522072   92.467163
H   57.009941   68.780472   93.662369
H   16.675674   59.881721   26.661150
H   46.451061    2.447031   98.672890
H   12.921140   62.792603   28.598181
H   91.161491   38.152088   88.256004
H   66.444000   37.590874    4.626678
H   41.452953   94.219498   57.388317
H   84.120331   82.679100   97.862404
H   43.917709   67.488968   16.953163
H   68.095490    3.085333   78.270805
H   57.846256   23.440268   26.146761
H   84.067635   71.448685   20.975771
H   92.918388   88.820816    9.978510
H   93.304977   83.822464   88.827797
H   56.591946   63.358139   77.010406
H   57.981255   85.755226   81.158127
H   64.328369   31.204676   21.989668
H   43.048336   32.359970   23.011234
H   25.933304   51.216385   40.721748
H   45.797649   60.283569   19.492464
H   23.828659   99.498627   23.099846
H   15.213421   37.084946   56.494534
H    1.817297    5.590112   67.913177
H   14.727372   99.077110   83.797417
H   34.531158   53.504662   43.529526
H   10.884444   17.679020    4.724530
H   23.421288   35.163136   75.862450
H   76.096642   71.593277   99.730881
H   64.635536   66.500900   96.678513
H   22.201933   56.842812   80.820068
H   96.318161   77.721542   47.924236
H   94.327255   33.633038   10.291228
H   95.837738   14.117710   36.486481
H   57.958023   76.574707   85.758011
H   24.389702   95.054970   81.768570
H   85.894966   75.480576   46.230167
H   64.116661   80.153740   87.833313
H   12.420507   46.269379   82.966042
H   29.684786   32.450790   39.916199
H   76.593475   91.794617   92.497375
H   84.895149   31.642452   10.944826
H   80.431145   38.052326    1.798181
H   81.709953   30.634560   51.765152
H   66.294525   54.468174    7.811336
H   42.107311   19.096655   78.988731
H   78.054329   34.129505   91.328011
H   75.805923   49.432198   52.239098
H   40.044098   97.572037   74.515488
H   36.630783   87.279266   34.765018
H   35.403328   17.510046   58.590111
H    4.288369   77.020897   60.516796
H   30.915815   35.989006    7.859459
H   99.365829   51.521133    0.176532
H    8.020662   23.406319   38.304588
H   62.191246   76.855774   27.135735
H   92.671738   26.638803   74.203133
H   82.721848   37.693409   60.184669
H   94.162743   29.867245   72.862839
H   66.706055   91.937958   59.298309
H    8.590327   25.581867   29.470041
H   85.228004   13.647864   71.894302
H   42.465538   58.453156   67.770203
H   39.137146   35.064667   26.498901
H   38.645683   46.497452   57.559860
H   25.535868   13.077085   46.365799
H   94.256798   65.306923   92.133766
H   49.223774    9.242981   61.846149
