100
TIME:    5.028, STEP:  5028
H   77.299477   60.928108   94.542740
H   61.614021   77.324371   95.136841
H   66.182373   35.637939   64.326973
H   82.320541   25.497253   64.562874
H   50.135712   75.773880   29.374226
H   50.053448   95.760887   76.686333
H   89.452858    0.851260   83.649155
H   24.695412   23.588085   46.540119
H   30.030098    2.871616   83.592491
H   37.437431   88.577995    4.579122
H   32.562714   68.555069   55.426449
H   63.938545   75.718376   35.030006
H   23.219925   57.537361   25.414551
H    6.124684   89.578163   39.873489
H   41.659492   20.906176    9.080208
H   99.358093   71.961746   15.673023
H   19.785408   14.534598   31.107023
H    8.588359   50.171688   25.229212
H   23.581215   89.283478   28.256762
H   57.051765   99.040565   58.662239
H   65.908073   55.664795   20.776077
H   44.419601   50.758728   91.097656
H   18.612984   53.729820   88.492630
H   51.884823   96.977753   33.649788
H   49.753571   87.413864   73.672768
H   23.625860   78.017761   17.607985
H   28.508448   33.468594   99.728188
H    8.294211   91.129761   32.971336
H   20.500420    5.271746   19.495800
H   93.789719   66.396660   83.100410
H   13.938060   72.925400   11.579582
H   83.228279   13.595262   33.796883
H   24.522488    0.610425   50.758904
H   90.546021   12.936465   59.929344
H   55.789078   78.841782   30.898285
H    9.713353   79.243034    3.619229
H   62.048737   20.399654    4.652112
H   56.173969   66.941353   77.252998
H   32.839092   71.865837   57.061615
H   89.612022   41.478867   33.626652
H   91.623947   28.706282   60.803204
H   79.732475   37.517075   39.017994
H   54.549946   93.651367   64.650368
H   58.287624   97.037598   72.346725
H   20.514299   33.512306   86.369774
H   13.219219   58.818226    3.587198
H   81.015915   98.276939   73.730492
H   56.507938   47.156738   79.682091
H   12.005280   16.031246   43.905609
H   31.329952    7.260725   31.999199
H   43.161015   84.222305    6.430069
H   49.483467   97.178223   43.983696
H   13.167089   51.162781   10.850126
H   60.251808   25.166756   53.687828
H   40.458496   99.234138   43.113377
H   99.857376    7.244755   21.461823
H   15.005952   44.466026   34.192177
H   51.660049    2.054790   84.045029
H   86.824516   51.214630   25.480358
H   27.222881   14.256337   20.602303
H   76.870605   44.746227   22.373802
H   20.462324   81.142166   67.854919
H   15.410840   64.181442   88.685394
H   88.303383   69.152802   90.628448
H   31.891695   59.267033   63.804829
H   92.468132   92.316399   43.477928
H   84.162384   22.194149    9.813690
H   33.047539    5.093442    6.570075
H    7.495859   88.506325   44.885857
H   32.253860    1.035256   91.145599
H   62.370964   53.295074    1.832141
H   59.384613   84.655304   24.748013
H   79.156128   69.599464   32.830559
H   19.523464   31.197189    4.407337
H    4.592206   35.808132   82.554291
H   44.524452   29.819971   57.607830
H   23.464415   90.752632   79.971230
H   68.204910   21.951405   92.116829
H    2.625130   38.749905   73.782494
H   52.942596   35.117649   87.754608
H    9.262094   81.298630   80.500923
H   18.581955   77.064224   66.339256
H   35.907188   91.205261    8.784497
H   96.068573   42.416183    4.187545
H    7.506932   34.380669   60.344185
H   35.572422   93.740761   90.942673
H    2.963483   37.776367   63.297974
H   36.888443    2.741144   43.454414
H   60.028915   14.221487   87.068245
H   21.795610    2.408333    3.957350
H   29.789177   44.928814   39.643963
H   50.319981   73.633041   29.331717
H    7.757995   78.387337    7.827534
H   33.203156   18.217627   65.829475
H   69.659889   99.351189   31.623142
H    9.213820   97.182037    7.746208
H   63.503319   56.227245   48.024216
H   25.321356   59.048096   75.575508
H   69.190796   58.524029   23.889130
H   51.518436   49.605854   13.377032
