100
TIME:    5.413, STEP:  5413
H   51.263100   25.621826   94.190262
H   50.980934   98.185196   19.412090
H   72.803085   63.336838   59.806652
H   82.385162    9.634274   43.458328
H   46.687302    6.633258   18.936470
H   44.081882   95.343788   14.813555
H   69.273491   26.849125   13.756730
H   94.435165   56.894321   11.189610
H   20.566063   65.855499   59.359062
H   26.916674   94.106026   19.656286
H   96.750961   84.046478   18.342281
H   49.243149   95.016548    7.626141
H   98.652237   34.256187   87.158867
H   87.061760   88.391487   69.172707
H   46.341576   86.516708   90.574158
H   83.878433   38.288345   83.714569
H   88.825783   39.998241   66.155090
H   16.820997   31.440372   11.883512
H   29.577747    5.433716   48.538937
H   46.680099   90.863075   84.874855
H   43.061623   17.335747   10.326572
H   81.329926   51.269821   58.311325
H   13.472318   50.598640   77.477692
H   16.111893    1.583468    5.056149
H   35.983429   56.882706   76.516090
H   21.870813   66.638596   81.403397
H   95.309616   17.464489    7.367688
H   75.808052    9.100227   45.698730
H   28.871773   40.201420    1.297521
H    8.552200   56.868004   13.706673
H   29.090309    7.450152   81.119606
H    7.537393    2.958677   98.155556
H   51.642330   72.441582   85.442741
H    6.813197   77.653618   43.709480
H   46.219299   49.738846   54.341011
H   43.180164    9.397854    2.408353
H   98.976532    6.299065   34.988445
H   40.262524   59.895954    4.422766
H   16.586918   63.476860   19.752298
H   53.348774    5.435919   63.919201
H   65.311462   41.915398   69.873634
H   45.130882   54.797310   57.103054
H   57.866177   95.960098   92.460884
H   33.705219    3.499826    9.990857
H   87.117912   18.323441   19.315577
H    8.251284   66.161514    5.152079
H   84.023727   19.215366   77.425636
H   56.528500   51.122116    3.503704
H   23.258141   84.145142   28.546711
H   39.404636   13.120672    5.072775
H   43.131641   47.053497   10.488708
H   68.194176   61.454365   18.708084
H   21.153393   53.395142   88.490532
H   51.337051   18.883835   70.677269
H    9.803593   32.974163   46.388485
H    0.337589    6.839772    8.355515
H   39.412148   33.357094   70.808769
H   22.992298   65.696617   74.128647
H   17.189024   67.481667   95.923927
H    1.817617   43.849804    9.651985
H    1.156378   26.842857   92.356224
H    6.799362   77.558640   50.434341
H   41.549091   37.910080   62.284790
H   14.740161   71.250046   80.177475
H   47.174545   28.516430   99.657722
H   68.816856   73.176842   66.242134
H   53.273560   35.504215   28.402500
H    6.452807   27.112989   24.975302
H   26.685034   60.842674   20.738174
H   40.052437   20.399960   90.334900
H   50.145851   27.100082   97.214211
H   27.640827   71.877975   52.937065
H   54.053818   50.555977   22.958237
H   11.049305    6.830695   81.531731
H   23.154196   36.357410   11.739964
H   53.627197   54.496239   31.703615
H   58.421062   57.384129   86.779930
H   86.292908   96.777229   13.378617
H   21.086605   37.619038   78.076851
H   34.063385   14.146672   54.586426
H   16.795656   85.281631    3.511727
H   47.471710   79.574966   34.143723
H   60.260483   97.643860   45.450878
H   22.556047   75.361130   69.022278
H   88.760567   10.297782   23.022636
H   26.710537    7.881824   17.678543
H   28.676764    9.783737   81.656204
H   43.084923   71.920654   39.453331
H   68.018417   92.785469   83.919441
H   87.756714   86.569870   17.719614
H   45.544945   65.716446   47.774456
H   78.806084    2.589020   36.666199
H   32.437088   89.936867   37.600178
H   70.412819   41.573559   91.789482
H   63.003929   64.867088   40.470280
H   41.013214   81.978485   87.860291
H   32.943474   78.321739   25.882721
H   26.734205   62.326141   69.413017
H   50.850189   60.183613   91.641106
H   75.432541   39.727657   76.289673
