100
TIME:    7.132, STEP:  7132
H   35.013748   67.982277   92.616470
H    3.508680   91.336006   27.800270
H    2.363214   87.008949   39.622776
H   82.673691   38.812775   49.234272
H   31.290071   44.418591   72.327606
H   17.419231   93.481468   85.052200
H   79.181351   42.924953   48.184841
H   59.325157    5.611228   53.357979
H   78.309700    0.580564   51.153599
H   79.959328   18.789949   86.964394
H   36.853760   53.214008   52.758636
H   83.632462   81.181030   85.265816
H   88.965675   30.294209   16.348301
H    1.947663   83.093056   99.987404
H   67.231270   32.967430    7.925684
H   14.761120   87.938110   41.022949
H   50.594124   53.696163   22.642450
H   53.582142   47.795837   52.293144
H   56.345913   77.550186   39.102848
H    0.371282   54.354580    1.912356
H   41.053726   46.204659   63.665218
H   46.132126   53.551819   11.922562
H   90.519722   36.618126   28.296213
H   56.393013   22.147676   77.389847
H   74.503242   20.556473   89.211342
H   13.979305   15.850029   19.729601
H   47.078922   46.008858   41.478817
H   30.764591   89.337364    2.517265
H   66.249321   96.163124   20.038473
H   74.465866   14.323044   50.361900
H   96.743599   61.594933   45.117867
H   16.075924   55.459484   39.019081
H   72.726326   46.670982   40.303841
H   79.445534   20.117355   71.291595
H    3.459845   19.677528   58.969536
H   92.610527   44.037903   97.003792
H   63.849640   43.346802   70.439056
H   69.212044   28.433239   25.727013
H   44.029102   26.021669   53.168381
H   91.438820   44.509579   99.165024
H   47.829605    0.901256   10.371761
H   99.167717   69.571289   44.060925
H   72.665253    6.270668   16.626316
H   23.941692   32.352928   78.064323
H   38.007683   50.498447   66.414619
H   86.063744   98.948837   12.135778
H   97.453415   12.700253   93.924217
H   56.622921   68.827271    9.865435
H   73.503914   41.777355   59.977638
H   75.477295   39.287037   84.862862
H   43.011875   81.094772   28.607979
H   51.743999    1.941607    5.865379
H   56.812885   63.362488   88.653358
H   11.533241   90.837143   46.531265
H   72.934372   83.619469   61.011631
H    2.478657    5.031551   49.836685
H   48.388905   83.755440   34.300087
H   94.992599    3.357692   29.852327
H   52.761909   40.118664   63.961189
H   88.380577   75.977875   60.759544
H    9.592325   46.899918   58.328087
H   45.789314   61.558426   72.654846
H   58.253086   20.608166   44.407806
H   32.781010   80.614105   33.505985
H   15.403312   91.223206   59.741169
H   63.217407   87.720573   67.883347
H   15.354723   94.934784   11.394839
H   87.709618   25.424421    7.153441
H   12.358995   37.326294   12.925277
H   74.876671    6.859962   86.715179
H   95.558434   10.140536   76.597542
H   85.958382   14.796847   78.820168
H   41.971848   65.532745   78.885315
H   73.203362   98.035645   79.394592
H    6.027569   38.816669   42.054661
H   94.260597   64.668602   16.036638
H   14.520497    8.507214   17.228380
H   67.054657   84.376595    8.312341
H    3.519773   32.569790   97.250877
H   49.764755   20.505764    6.493045
H   50.435493    3.066170    6.252466
H   76.475685   90.722794   90.341255
H   68.991295   26.390295    9.158295
H   40.819653   22.459900   12.019695
H    5.060377    2.772754   56.384941
H   87.147385   71.026245   37.051041
H   43.484943   84.797966   63.624641
H   70.731194   34.363873   21.630142
H    3.691533   97.074394   69.860237
H   35.774006   15.845242   79.167816
H   15.893574   58.537796   84.076584
H    5.994677   31.873466   69.416344
H   42.628361   41.515270   70.533089
H   36.546852   45.862999    7.698773
H   33.285500   10.887917   79.972443
H   82.995529   14.097249   99.071632
H   96.498070   76.970642   27.021519
H   24.510912   39.350628   35.707069
H   68.961052   67.599907   47.658108
H   82.206902   95.616379   10.691646
