100
TIME:    2.646, STEP:  2646
H   38.383698   79.369682   96.723526
H   27.667000   48.207359   44.908833
H   25.237143   64.267838   92.277382
H   81.920731   23.635416   95.126404
H   71.471069   84.846085   93.961472
H   86.988289   98.341484   40.788181
H   14.294012   40.008606   97.373497
H   11.915916   17.515039   65.248055
H   88.584206   31.891373   33.530445
H    2.533541   54.375999   11.303088
H   54.130554   72.710129   84.873169
H   54.851929   56.320938    4.584288
H   74.949486    1.620558   62.137222
H   24.066643   96.920143   58.602924
H   12.685326   33.675507   23.581030
H   95.133850   80.300201   13.400282
H   11.331618   56.981827   14.264169
H   57.688629   66.025642    7.812080
H   86.477745   89.355667    2.765284
H   21.231583   49.622707   96.484657
H    7.259243   92.799286   85.425812
H   16.054947   47.596588   93.946960
H   50.416115   73.102470   56.645401
H   73.199432   68.416321   10.558154
H   34.947014   76.320984   56.084290
H   34.526371   48.765820   41.161964
H   33.911011   32.485500   52.473392
H    9.280519   79.946053   54.236019
H   68.705429   89.158028   32.093590
H    2.453412   25.351791   93.738396
H   20.191267   59.326633    0.035850
H   32.827126   79.404900   54.310585
H   56.739170   74.888466   36.169533
H   89.900566   31.232559   60.279099
H   14.998818   58.902832   85.851524
H    2.613401   92.341606   11.544122
H   33.585098    7.633059   16.959593
H   54.625656   10.524731    9.163073
H   33.384415   23.764383   87.895432
H   13.970160   64.474556   46.216328
H   54.415066   46.973133    4.684156
H   93.813744   30.611938   27.112139
H   34.032383   79.367218   92.597069
H   10.394457   57.119209   39.445847
H   27.135042   27.493710   82.536110
H   43.950542   13.385181   93.913490
H   62.404987   68.736115   50.858147
H   56.380726   22.626368   32.297386
H   42.374039   13.308285   38.924141
H   81.378563   71.019691   98.600861
H   43.342747   14.189230   81.315842
H   33.722584   18.209785    0.355776
H   63.768295   37.351135   49.194641
H   15.419384   64.039253   48.576691
H   30.112228   90.467529   22.857862
H   96.876968    9.751131    2.550720
H   63.995098   13.197942    7.644066
H   29.029877   27.005764   45.401443
H   98.962135   50.569012    8.347971
H   84.410019   31.168402   88.352058
H   26.612658   55.519283    8.093530
H    5.002354    3.314157   75.632355
H   53.710064   26.716204   52.032394
H   24.735044   56.188080   55.304295
H   37.346249   49.512897   41.978111
H   38.797157   10.732368    2.637436
H   75.274849   39.841572   94.810501
H   97.588295   68.864685   92.696701
H   88.778130   59.661644   94.279366
H   83.992004   81.229561   96.161407
H   38.010780   15.365640   30.409119
H   55.791595   63.709503   50.350052
H   34.468018   87.424736   93.901848
H   71.961418   81.935776   45.948906
H   89.745995   32.409740    1.982242
H   88.210503   77.157219   17.887691
H    7.194238   97.208878   37.845707
H   56.294216   77.705894   60.570217
H   88.398285   45.746593   47.201767
H   69.760506   64.848877   92.966019
H   62.662365   56.655743   38.133503
H   39.856445   61.507950   65.520607
H   85.213089   51.422668   81.918365
H   32.191349   38.583221   21.746918
H   23.491337   83.375671   91.252495
H   90.392273    6.245571   25.529629
H   43.875084   10.967178   49.714844
H   98.550537   93.449402   68.227608
H   10.594326   46.846794    6.552175
H   32.396275    0.409822   18.806423
H   32.307861   16.308601   89.340408
H   74.068283   94.502251   83.941063
H   55.056309    6.917418   23.617180
H    2.973064   73.733177    5.225295
H   10.842381   12.716515   76.889336
H   12.470382   91.244148   30.779785
H   52.575150   19.528835   85.015526
H   16.580038   38.766785   13.698044
H   82.664207   48.256161   23.407524
H    3.566845   10.738558   42.838287
