100
TIME:    6.253, STEP:  6253
H   94.457840   48.590172   93.421219
H   27.782055   43.705448   72.378151
H   87.248276   23.769562   49.943676
H   82.526154   75.026459   97.413940
H   39.163498   73.962952   96.161575
H   31.053013   94.433754   98.001518
H   25.250931   83.570244   79.445824
H   28.412827   29.565937   34.064228
H   99.917198   85.092865    6.482207
H    3.968199    6.167625   52.547977
H   18.616196   17.845312   37.428993
H   17.180466   37.121052   47.833382
H   45.049942   83.458870    3.692070
H   45.469353   85.802376   33.096287
H   56.554939   11.484039   50.195103
H   50.104630   64.818764   13.987226
H   21.278175   95.558830   42.623604
H   34.784557   90.568222   82.763710
H   42.658482   40.675049   92.795120
H   24.051010   73.021278   42.065910
H   93.214844   33.711544   87.525917
H   61.861542   52.384933   86.777588
H    2.255854   43.766975   53.445099
H   38.064037   11.632296   42.671421
H    5.941728   90.265289   82.719704
H   18.041620   41.805595    2.413719
H   22.875351   82.547745   24.035894
H    4.932296   48.308601   73.465408
H   47.136543   16.413204   61.589355
H   40.760319   36.078209   80.484360
H   62.152466   82.773964   14.661476
H   60.575474   79.747116   20.392494
H   10.809582   10.983328   61.116577
H   42.306389    0.672674    8.322832
H   25.336380   86.230232    5.487581
H   16.200350   75.190422   99.766762
H   79.542702   75.536743    1.177383
H    5.545706   44.521503   63.697018
H   81.131622   45.173637   38.349815
H   74.230118   26.798122   30.007097
H    7.903750   70.736778   89.663673
H   73.245163   66.124283   99.187096
H   65.100616    0.997690   53.134132
H   80.068115   17.599203   92.121178
H   14.254684   85.180496   91.196030
H   97.410698   82.183243    8.564707
H   90.586227   64.897415   85.487770
H   56.573360   59.773849   55.478123
H   47.809837   14.576942   95.038620
H   57.024265   25.906565   46.322464
H   43.072231   65.956711   19.343311
H    9.017059   83.507904   63.565620
H   38.578625   58.265747   39.704380
H   31.886673    5.176909    7.744483
H   42.922112    6.587526   53.534176
H    1.383863    5.956174   79.759918
H   92.665413    9.118968   50.699821
H   60.444244   86.368614   52.492905
H   83.437546    2.973401   31.439674
H   46.384636    8.413716   85.760399
H   54.144855   87.778336   26.863033
H   76.986732   69.740036   12.424544
H   98.576149   80.589394    4.683472
H   72.422897   75.825851   57.373486
H   80.515793   61.428539   77.883522
H   17.214993   31.417809   15.909999
H   85.878311   64.542114   68.956985
H   48.428337   75.152870   65.132156
H   68.552315    0.485637   68.056671
H   57.067513   62.651581   88.566101
H   23.471851   69.946930   87.139748
H   58.377796   44.000168   14.436797
H   99.283356    9.008430    1.418673
H   92.557564   53.665943   31.620867
H   63.651417   37.555836   75.417740
H   73.484673    8.330986   75.181122
H   34.689053   84.587669    1.639393
H   25.757641   41.852158   59.771042
H   61.365231   35.151691   87.446358
H   92.872452   68.389107   82.219688
H   33.233948   93.971817   53.715992
H   10.517616   85.022491   63.877415
H   13.390481   11.690713   25.447380
H   80.345558   47.242088   92.302513
H   47.860298   57.757591   41.594101
H    7.375541   38.737167   76.010452
H   84.778450   48.708748   21.710653
H   56.594444    4.701944   30.743919
H   85.450058   46.014839   77.049324
H   13.489182   52.011982   47.745857
H   79.921165   11.076275   65.513718
H   40.957577   65.764679   52.668701
H   86.282913   15.139638    2.558665
H   51.595074   92.535469   48.429153
H   48.481834   89.623672   59.773258
H   10.393798   48.807098   44.473450
H   66.268608   26.526686   77.573471
H   26.207590   95.857697   53.351181
H   10.834527   63.804523   21.282600
H   27.609179   18.173172   95.368721
