100
TIME:    1.470, STEP:  1470
H   17.912333   87.214890   97.800186
H   60.379524   84.446465   70.727409
H    5.022684   79.661964    6.079508
H   81.723343   72.085899   59.588978
H   82.004395   90.584511   25.846489
H    5.221249   99.615532   24.324472
H   75.926796   60.600361    5.408743
H    4.347198   15.776159   73.224113
H   17.492592   44.958939    7.555211
H   34.667732   37.490379   65.255882
H   63.519211   25.390919   98.151947
H   99.732544   97.374397   88.293190
H   49.755005   72.770287   79.022545
H   82.296013    0.545033   69.108665
H   98.380196   38.719967   80.111435
H   42.419220   83.159477   11.018167
H    5.881709   79.210434    7.195788
H   32.557587   23.214752   48.584274
H   68.156578   40.022324   40.807224
H   52.912308   74.596054   16.417032
H   77.044754    9.873688   17.346329
H    3.300960   46.040169   94.086830
H   66.117409   82.666801   90.291031
H   82.462578   54.312077   97.898590
H   77.008537   69.589485   47.408203
H   39.918644   83.807205   51.389015
H   35.318840   81.371658   29.136786
H    8.507942   25.054333   15.362388
H   43.134750   82.462036   87.685143
H   57.359447   54.457504    0.249860
H   73.927376   53.867035   93.089417
H   58.573856   11.899352   63.178810
H   73.903275   60.929985   30.226164
H   40.212700   39.005928    9.822826
H   44.232674   47.799477   14.241913
H    0.365096   99.959427   15.586083
H   20.791477   50.702003   24.295416
H    3.234671   32.048962   26.175457
H   84.634933   49.127831    1.233723
H   24.736200   74.567299   53.691395
H   34.782791    6.622512   76.977097
H   99.505951   77.832954   71.863205
H   23.902807   72.315094    7.653463
H   85.490211   37.407356   24.463163
H   29.144260   73.890701   81.901810
H   59.122478   90.954781   89.140297
H   51.601917    5.037928   40.184273
H   56.317921   10.518427   59.533199
H    8.001660   10.704544   85.835434
H   56.720394   53.123737   80.850792
H   43.432468   27.724829   68.916306
H   76.572380   27.333693   77.559616
H   39.372971   30.532288   17.493904
H   42.649914   83.221748   96.684402
H   23.733002   87.373062   12.880110
H   95.405533   10.987047   42.584534
H   89.443604   47.130867   95.796577
H   16.598026   38.064629   75.691483
H    6.213455    0.878983   98.630280
H   62.012470   40.777386   21.799278
H   52.429638   10.210967   99.783806
H   46.737976   14.262445   28.841667
H   73.942825    6.910027   32.710548
H   43.981842   49.790924   87.229713
H   90.668785   43.437847   32.459118
H   11.040812   69.195015   33.103222
H   69.627670   99.185638   38.034618
H   78.822746    1.607376   36.477100
H   30.166748   44.161499   68.037910
H   60.163368   22.079428   98.637726
H   75.352943   95.381538   44.517094
H   52.758259    2.738594   64.249474
H   11.144730   45.593243   24.055424
H   97.837151   56.356163   15.842125
H   33.046791   30.735334   12.833733
H   60.413570    1.785306   97.017784
H    0.421000   99.136948   17.044996
H    1.043600   54.601967   95.621750
H   32.013779   49.196140   34.080193
H   27.434067   28.894262   94.279457
H   39.648754   44.489483   67.847099
H   51.619244   53.827774   63.857010
H   10.809344   31.791613   69.910126
H   51.293644   37.951397   29.161720
H   80.752380   56.935997    5.252478
H   17.457790   63.052670   43.864601
H   65.332695   96.471939   93.638275
H   79.619263   87.602966   80.462685
H   86.188667   12.325219   16.172791
H   36.370567   48.796722   76.765541
H   84.180977   52.806438   64.505447
H   87.052071    6.064359   61.529579
H   79.602257   71.676010   32.638626
H   89.308662    2.398481   25.933601
H   31.177799   18.055595   49.865166
H   15.337601   37.681755   91.521362
H   45.920425   52.040691   52.648163
H   12.262485   28.753845   32.516769
H   38.684502   43.186886   21.916317
H   30.533371   40.945080   56.103951
