100
TIME:    0.653, STEP:   653
H   73.162758   62.137886   98.548172
H   83.105827   40.149883   19.191191
H   90.983887   20.883339   15.672577
H   81.586212    5.745790    4.369426
H   89.322189   25.098351   47.999336
H   17.890430    0.502939   43.414516
H   18.747177    5.430437   41.518223
H   68.561783   45.094273   48.238304
H   37.576012   23.510223   58.984245
H   56.995110   25.761127   33.261032
H   39.514557   92.517548   76.848701
H   30.917225   56.422173   46.447456
H    1.725707   22.200165   60.225227
H   22.748966    3.063918    6.932858
H   88.444450   11.695605   19.382841
H   75.268265   54.621807   78.835434
H   71.566322   25.180923   32.808769
H   15.098432   62.945267   76.908005
H   55.432549    5.745927   97.766434
H   74.973274   91.840973   60.737007
H   25.526596   91.208832   39.519936
H   24.961842   44.961823   63.654942
H   77.025536   89.311409   13.666504
H   58.370758   44.513462   58.578392
H    6.229395   34.386700   41.380684
H   43.664806    8.152770   27.967867
H    5.769453   15.332183   12.924192
H   77.442284   86.919022   88.358505
H   25.370087    8.337476   26.304173
H   26.031900   74.678055   35.299770
H   41.788914   80.600548   57.738853
H    6.988026   34.470108   38.812584
H   16.353916   20.705538   56.624352
H    5.692689   13.879043   44.240913
H   64.540489    9.558415   64.490158
H   29.331242   35.782238   18.397451
H   42.430111   80.621437   59.919140
H   37.000587   47.002445   68.520714
H   21.363403   66.568367   79.540131
H    1.688515   51.052036   89.410820
H   90.616669   78.586418   57.726894
H   72.933250   41.165298   33.479069
H   16.865507   67.415787   48.639511
H   37.660431   23.714869   44.579231
H    0.012973    6.128041   11.986319
H   69.611580   75.479790   85.879036
H   42.975147   60.968044   33.203072
H   56.274288    2.106615    8.981826
H   84.117851   78.367416   18.425165
H   39.585285   40.688473   37.992844
H   43.494801    6.600351   60.302006
H   36.866798    3.145042   31.193741
H   22.424860   25.795044   64.946297
H   61.567722   96.548363   60.631489
H   88.774231   15.749926    5.947216
H   94.383286   11.845673   70.397141
H   37.648758   70.704887   18.093315
H   77.434998   15.219307   96.734818
H   41.777199   66.359390   61.353405
H   15.928075   77.979935   45.036705
H    0.891982   48.202652   63.481438
H   75.734894   21.867325   65.810562
H   18.525188   62.623894   88.759621
H   87.879707   45.346642    9.410139
H   58.242493    8.689640   56.374519
H   61.230507    9.810505   84.796318
H   35.177666   70.936707   98.588425
H   35.258720   54.883102   97.419777
H   89.447258    2.865906   19.276829
H   43.614182   80.987938    0.357603
H    1.295715   50.973278   54.315708
H   20.124506   29.853844    4.430719
H   64.415009   86.006569   45.005260
H   15.817925    8.055986   64.398872
H   93.656052   29.572840   50.899952
H   41.096836   49.424438   51.990299
H   26.242790   69.947624    2.588781
H   62.659454    8.022278   50.503872
H   92.851784   51.589695   24.969639
H   67.501175   73.391655   64.664642
H   23.660557   36.037243   19.016922
H   90.318169   48.492142   32.174889
H   59.112415   18.156454   92.094971
H   95.089630   68.039650    3.785774
H   20.533861    8.037528   84.451500
H   36.263401   33.039738   87.129463
H   10.767126   55.874504   54.680676
H   66.467178   53.013176   88.952324
H   69.234322   57.814003   22.857914
H    8.602207   82.415863   47.556698
H   50.746006    8.692327   47.251904
H   26.602343   44.617622   45.965240
H   27.181202   47.196220   69.432640
H   10.342171   52.842842   70.846016
H   45.302448   91.237457   31.090874
H   47.856720   69.944878   33.720787
H   10.770540    5.154807   99.634140
H    9.262750   21.797577   45.587822
H   77.604698   39.665119   90.353188
H   79.794968   61.932316   34.793076
