100
TIME:    8.031, STEP:  8031
H   74.218498   85.540276   91.793411
H   78.680161   40.052601   84.485733
H   17.816462   51.686005   29.067997
H   82.824585    1.772316   99.955391
H   23.234381   16.477314   47.951340
H    3.476779   92.507515   74.083473
H   32.065868    3.628324   18.487827
H   88.665527   83.385368   70.814766
H   56.210564   14.144958   94.563934
H   55.404732   31.698259   22.165890
H   53.230972   89.387451   66.162033
H   49.321678   26.242916   21.273548
H   31.639610   75.879608   27.008577
H   57.433968   80.322090   68.403725
H   78.150520   52.664322   64.688751
H   78.613846    9.308386   66.397736
H   78.301735   13.159750    4.481969
H   72.804291    4.050639   21.132301
H   70.347885   15.262609   86.466293
H   76.146011   35.266468   63.120430
H   87.705803   56.706654   39.268375
H   32.320133   54.745255   35.364426
H   78.516777   29.307882    2.573083
H   72.862900   32.902313   10.621512
H   42.349068   49.262436   95.850685
H    9.740551   89.349594   35.129395
H   69.557709    8.636924   59.318623
H   54.908562   31.299627   32.233932
H   85.796974   77.727249   77.542656
H    8.937832   92.071915   21.829895
H   32.125286   42.210861   73.991920
H   72.839561   30.623676   55.794167
H   36.049603   80.896416   21.292860
H   17.430569   37.729408   33.417160
H   81.086205   51.610619   13.663820
H   70.758850   14.451333   94.177956
H   50.075993   10.422190   41.276638
H   32.056824   11.979336   89.167015
H    6.079626    6.436293   66.048775
H    6.763374   60.348839   69.897888
H   86.389923   31.745558   31.551359
H   23.405128   73.096725   89.957207
H   80.402008   11.663420   81.560677
H   66.535797   47.442345   65.963043
H   60.025124   15.031412   43.344635
H   74.458611   16.093006   15.788103
H    4.479580   61.591316    2.554262
H   56.677792   78.086685   65.490318
H   99.786934   67.321724   24.113594
H   94.352783   52.970394   22.004543
H   42.950146   94.301933   38.085648
H   95.434723   18.521288   46.851807
H   75.457817   68.575195   36.443977
H   90.713654   76.172974   86.202713
H    1.354278   62.404327   68.655045
H    3.598360    4.085891   19.232605
H    5.383355   57.815361   19.802513
H   28.050665   18.458490    6.694192
H   23.662128   78.107155   94.946091
H   29.055779   45.078075   35.189842
H   66.302261    5.093615   88.236214
H   13.882057   53.190659   31.976612
H   19.284737   59.262115   82.760681
H   94.513908   85.511307    9.095910
H   51.088188   19.421358   43.461304
H    7.991634   43.028465   21.039753
H   43.226654   26.015442   54.799114
H   25.609810   76.838615   50.130844
H   57.167564   72.729897   56.543617
H   93.130180   52.019474   84.809982
H   67.012001   48.973251   65.815468
H   11.934417   84.938866   44.714886
H   83.354645   21.066366   55.837101
H   53.412464   41.137585   25.978445
H   49.332138   40.140423   10.217436
H   15.513240   22.284180   55.544029
H   96.168663   30.697083   33.171974
H    9.290339   25.595654   57.963116
H   46.627907   29.929142    7.282253
H    5.677916   71.532738   29.043282
H   68.035240   12.366738   59.984818
H   43.935951   96.552795   15.131062
H   25.852804   41.424839   94.774414
H    2.669824   99.388916   29.909519
H   61.287354   46.532795   69.237648
H   66.461166    4.045054   99.480072
H    3.527132   19.433357    6.492394
H   85.189598   62.426605   12.308998
H   22.350769   47.018684   62.507576
H   56.291233   78.859512   11.306667
H   52.684315    7.083017    3.061933
H   72.511574   99.487762   86.549690
H    0.256207   68.489891   40.054138
H   23.431288    0.404378   68.316780
H   17.740253   30.361588    0.631171
H   57.249268   78.596802   52.637383
H   25.139177   28.561363   75.318428
H   22.775629   83.833168   17.658773
H   26.134544   71.482002   72.357597
H   38.047253   72.543289   24.088253
