100
TIME:    8.146, STEP:  8146
H   66.441399   74.994164   91.688126
H   75.504044   46.284634   91.736404
H   19.793200   59.959702   27.718147
H   82.843887   97.034294   93.652290
H   22.203897   25.695072   44.833130
H    1.693279   92.382927   85.471870
H   26.038708   11.394015   27.480976
H   79.626755   93.334862   60.256058
H   53.383644    3.087946   87.325546
H   52.263710   33.349491   26.669044
H   42.533951   94.014755   55.084938
H   44.932144   32.007305   13.088028
H   24.306465   68.918472   15.580259
H   51.739769   79.967628   77.154716
H   79.547310   42.391953   59.158516
H   73.990051   99.249901   56.851837
H   69.054146   20.765842   14.950871
H   75.262711   98.454796   17.145924
H   72.139496   20.087322   92.525482
H   73.047104   32.824718   70.950172
H   80.881538   45.257717   36.147533
H   43.345295   54.897919   25.571106
H   76.981361   28.373034   99.282730
H   62.178009   34.278046    2.080510
H   38.235909   40.142067   96.699989
H    9.198330   85.959396   24.307220
H   59.641167    3.856391   61.600689
H   45.205612   36.667439   36.035622
H   88.297508   88.161057   72.106407
H   13.347326   89.225693   30.971760
H   36.651691   52.522713   64.893486
H   80.100761   27.446682   45.148033
H   44.150455   72.482338   31.652967
H   22.289940   27.190315   28.572577
H   78.224190   42.903496   20.660856
H   80.755722   23.458960   93.816475
H   61.105541    6.210325   50.338223
H   27.303619    9.874720   97.282784
H    1.225217    3.930933   54.904289
H   95.931534   49.582504   78.945435
H   78.530350   35.691139   34.260708
H   13.713532   73.547699   95.828636
H   81.391693   12.353260   89.867714
H   59.193180   49.373398   77.207550
H   50.050110   10.494343   53.185738
H   72.974083   18.286018   16.255308
H    5.378566   67.845284    3.658719
H   56.684811   79.271149   72.605873
H    3.148325   57.797455   19.526211
H   96.767334   54.720768   13.963735
H   42.942249   83.199562   39.298187
H    1.023696    7.850147   39.302826
H   77.842537   69.242004   29.765211
H   88.049927   74.297134   91.277481
H   92.197884   72.482056   69.632446
H    3.741592    3.964922   15.317734
H   12.673728   54.497108   30.739937
H   19.487871    7.597842    3.731931
H   32.732082   82.966087   86.117889
H   21.467316   53.917683   31.918968
H   73.556442   99.745728   79.269386
H    9.800484   52.120255   26.773308
H   27.092106   51.414825   74.874786
H    2.410498   86.137756    5.973461
H   55.653198   10.236336   54.170609
H    0.927382   37.311455   27.839451
H   34.000122   29.991291   60.351177
H   17.666008   83.415459   55.628510
H   62.899490   64.466728   49.330673
H   95.465767   57.795269   84.566071
H   63.360188   41.147934   64.436226
H    2.464622   81.120506   53.143879
H   75.856552   15.377871   52.888226
H   50.881222   33.859715   19.145845
H   54.871918   40.309757   18.936697
H   18.232203   29.654613   47.806412
H    6.613204   20.743202   35.211884
H   14.692590   18.076504   64.314514
H   52.142242   29.591351    8.565641
H    0.038413   65.268242   19.135902
H   70.286598   13.556466   66.858215
H   52.564987   97.298569    5.510176
H   33.126793   43.348057    5.726277
H   10.581601    9.229824   19.406399
H   55.687912   39.339153   58.089653
H   63.814922    8.269202    7.466166
H   11.207780   11.071793   11.976051
H   87.039116   53.223763   11.116638
H   24.737682   40.615562   61.567024
H   46.123272   74.128677   15.417414
H   57.390583   13.292457    5.490631
H   81.020409    8.136690   88.741386
H    7.627842   71.939751   48.947266
H   34.545403    7.381225   76.071068
H   15.751671   20.060265    3.273619
H   66.747787   74.055481   46.697517
H   16.011351   35.160789   68.704735
H   22.553652   89.523857   15.349947
H   20.656181   71.978600   62.725597
H   45.190006   69.591782   13.009631
