100
TIME:    0.325, STEP:   325
H   95.344398   92.217232   98.848465
H   92.229729   22.365711   98.501465
H   85.348389   97.286018   19.523834
H   81.531158   19.260225   22.348558
H   92.260056   98.807709   56.893013
H   22.976643    0.859928   10.931038
H   35.937412   83.283302   15.868194
H   94.341934   16.719090   78.353996
H   45.638878   55.045990   79.629997
H   65.958855   21.052784   20.416002
H   70.024323   79.319672    8.444180
H   43.436939   39.981133   69.795235
H   22.589478   42.044525   92.826744
H   38.989811    4.075217   81.972832
H   84.455559   40.992462   35.149723
H   88.456131   83.310616    6.061931
H   97.937050    3.489826    2.945584
H    8.089719   78.895828   88.279099
H   50.325066   91.986588   80.484573
H   83.851936   98.717682   38.360176
H   44.990585   23.862457   48.421120
H   93.510841   44.528900   91.582222
H   81.404808   91.979012   23.051754
H   88.845490   40.579624   82.937714
H   17.959578   60.399578   38.958389
H   45.168774   17.925552   58.710526
H   34.053387   28.966766    6.415418
H    5.118879   71.609085   77.517929
H   18.238129   78.578636   41.808838
H   13.455754   82.795975    9.225422
H   28.886324   51.186852   83.694176
H   86.278137   43.531448   69.177208
H   93.250061   44.703362   27.075521
H   91.833916   43.938324   58.059395
H   72.693443   34.352768   44.518112
H    0.812187   10.016035   19.526052
H   10.971086   92.633156   34.073925
H   50.556313   53.005802   45.375141
H   36.109386   73.570198   10.976518
H   32.582371   81.758049   63.605606
H   13.032085   67.330437   49.996853
H    2.412024   26.443438   18.069036
H   14.040685   65.448868   24.948524
H   58.605865   18.218256   12.508701
H   28.464458   19.068939   83.918396
H   73.800667   69.313774   84.592781
H   39.511768   43.273281   30.400335
H   56.256771   98.729034   88.687119
H   74.528496    5.533453   31.509180
H   32.706074   35.696102   60.932724
H   43.519825   38.267250   56.843632
H   20.927114   33.581100   52.727249
H   15.620756   23.893188   83.994881
H   69.160934    1.899262   46.157368
H   14.885799   86.996109    3.163923
H   93.972885   12.190384   81.563034
H   16.855972   80.169121   86.897575
H    1.858894   46.194527    5.183453
H   15.909462   52.500870   86.533234
H   37.571693   52.769226   54.365807
H   80.201767   63.455032   89.056335
H   87.376251   24.920303   80.650040
H   96.277000   84.990715   11.261800
H   65.357735   43.562401   18.316328
H   45.222290   34.886761   25.827471
H   81.380165   26.116413   65.402397
H   61.493340   59.596615   82.752975
H   57.915825   36.124802   81.739479
H   73.101311   26.433891   39.849400
H   36.970200   64.491844    1.047339
H   11.711931   73.291512   58.249546
H   47.168941   40.739464   80.417030
H   85.800873    2.232052   53.415966
H   23.037453   28.812727   83.892891
H   77.840622   29.106134   26.035393
H   33.341770   28.401644   74.060471
H   96.462555   98.375359   96.783997
H   47.249420   29.469452   32.388699
H   77.131447   52.549671   21.312321
H   83.586868   91.254082   92.922211
H   17.241795   32.643932   99.413528
H   65.709160   46.350052   59.604149
H   38.359669   12.681985   60.854492
H   72.527618   39.972263   33.745003
H   36.505341   28.554802   16.247219
H   43.813267   20.991627   64.352242
H   88.860725   79.722771   39.040417
H   61.187027   79.273796   92.360649
H   62.427681   76.076820   25.541782
H   37.601509   95.914032   35.830257
H   37.322910   90.980789   40.325146
H    2.333375   19.949167   39.716644
H    6.136920   37.369133   44.057884
H   78.640572   32.945930   48.731167
H   50.972980   20.617802   23.554771
H   20.765289   82.897514   50.662315
H   36.805046   86.331581   18.497978
H    8.058450   19.004852   50.835442
H   93.229942   38.251240   17.828457
H   59.425091   70.356148   66.383896
