100
TIME:    3.375, STEP:  3375
H   89.085114   12.516575   96.056107
H    7.388003   87.731934   90.894028
H   37.767944   16.715019   83.723289
H   82.043091   93.599358   55.168995
H   64.941483   43.278637   74.194733
H   75.686653   97.551704   12.983252
H   76.085670   89.233498   54.382332
H   54.617950   80.582077   98.312019
H   70.663994   61.800903   87.642754
H   82.611427   64.843361   39.851952
H   86.320755    2.043150   14.652742
H   27.026100   92.862152   52.692635
H   28.579002   57.515213   89.681511
H   87.970985   94.673164   14.078526
H   21.553661   68.558731   88.539131
H   65.823013   16.539398   52.887062
H   52.709755    5.201604   80.627914
H   73.264000   30.574547   82.538269
H   97.834999   19.938051   41.169796
H    1.592766   34.144138   46.118309
H   63.999435   20.225189   65.636826
H   85.944885   48.564346   31.865829
H   40.682915   67.173561   35.788544
H    5.467457   77.159515   56.417637
H    8.875249   18.504593   61.464943
H   31.183031   27.046244   72.831657
H   71.049622    2.181312   66.938576
H   47.768795   13.973282   78.332115
H   84.556641   55.298264   97.634956
H   30.405037    7.308549   51.691193
H   48.883595   24.698584   42.359688
H   78.856819   59.261269   86.823418
H    8.087412   21.551075    1.843609
H   20.703129   64.424141   29.566902
H   96.876984    3.795926   30.242264
H   65.998787   49.609531    9.037049
H    3.505817   80.935532   74.402153
H   24.497231   97.183464   60.604610
H    2.611316    7.882582   17.249666
H   45.305927   96.226685    3.571810
H    4.594894   71.986450   21.859236
H   28.295403   63.332176   61.361481
H   40.311687   83.738815   45.253101
H   63.842453   69.336121   10.723910
H   63.898258   98.732513   44.919003
H   34.545490   27.289753   96.872383
H   68.101852    8.381303   57.860489
H   56.419659   30.132055   77.403816
H   63.681404   52.931252    9.843163
H   96.662468   82.109978   47.611805
H   43.287128   43.809311   89.002289
H   69.151428   50.564888   52.500423
H   78.885429   41.578125    6.854092
H   98.538750   52.142517   80.746307
H   72.070663   54.360886   29.052999
H   97.789108    8.984442   77.733841
H   10.212962   92.162300   76.977989
H   74.746819   58.160599   26.623913
H   56.454887   81.370422   52.383282
H   36.303406   87.201523   67.617561
H   72.598183   21.619663   51.253490
H   79.129265   96.528061   42.647110
H    3.188590   76.979057    2.036592
H   74.795464   60.153664   35.509747
H   66.284004   91.288185    9.867993
H   94.013710   74.491615   45.740143
H   16.785934   65.042450   30.008001
H   47.231499   10.556754   27.547117
H   25.111343    7.280342   48.559254
H   98.764221   17.894953   94.626343
H   14.860458   65.764793   21.663143
H   95.683334   39.515549    3.722993
H   86.934845   51.363789   75.214104
H   55.917553   35.802567    2.623724
H   24.894308   33.449802   57.246006
H    5.442508   23.878115   68.833740
H   73.383736   34.023865   50.738026
H   90.543961   30.037176    0.827296
H   23.356741   43.605289   55.338722
H   34.009071   25.143581   30.161850
H   76.923416   64.197586   81.704865
H   94.553925   66.268875    4.561712
H   31.335089   63.591949   51.351933
H   82.344391    0.964714   55.161964
H   87.994415   37.776600   20.583900
H   73.617798   33.023102   76.153397
H   92.563332   57.962929   84.476273
H   10.283560   35.083572   60.643738
H   25.724785    6.257999    0.587850
H   67.944061   70.420364   44.864998
H   62.141510   55.670773    4.735635
H   28.008749   49.324249   97.834511
H    1.798716   28.783697   79.998375
H   73.434914   17.950935   54.376648
H   98.237297   47.418232   93.641563
H   72.682739   62.456123   93.125618
H   94.711060   61.364910   43.090462
H   19.255278   44.973785    2.033499
H   47.936150   51.398594   62.346291
H   48.844326   92.026283   72.615875
