100
TIME:    4.200, STEP:  4200
H   33.292877   36.859863   95.300797
H   84.482063   32.455612   42.929459
H   51.948891   76.068993   74.042732
H   82.181564   59.610405    9.946130
H   57.552032    9.406024   51.824966
H   62.896191   96.657921   94.685875
H   32.848705   44.942348   18.898478
H   89.774574   51.954586   22.563564
H   50.383919   82.480453   35.711758
H   60.065422   76.689140   72.158752
H    9.581253   35.238483   35.184422
H   95.536888   34.214775   93.968910
H   76.056473    7.607475    7.689038
H   47.121300   92.130287   76.862381
H   31.589844   94.866760   48.882954
H   32.652313   44.381767   84.404236
H   86.368050   59.766773   55.730919
H   90.887901   90.454521   53.934978
H   10.684776   54.550133   84.634583
H   79.361931   16.624475    2.288175
H   15.042755   38.094326   43.247719
H   65.038437   49.659546   61.609482
H   29.667976   60.463890   12.182715
H   28.816017   87.054077   95.143936
H   79.368317   53.079315   67.557777
H   27.400351    2.490940   95.469856
H   99.907738   67.889969   83.303627
H   78.157623   52.481506    5.599776
H    2.495422   30.148540   58.635780
H   62.039780   86.889458   17.276531
H   81.352272   98.678169   77.088310
H   30.947645   36.469788   10.448982
H   66.200905   61.190239   76.166122
H   55.561707   88.817871   94.812584
H   76.370316   41.432396   80.478745
H   37.736134   14.391245    6.224181
H   82.633408   50.723129   39.408802
H   90.398781   82.089851   18.824352
H   67.791138   89.907585   37.300713
H   67.599510   18.993092   68.482605
H   48.211197    0.297934   41.295879
H   54.149063    0.355118    0.121470
H   47.417896   88.686096    4.844767
H   11.160822   83.158295   91.388550
H   92.336845   66.178650   15.516009
H   23.901913   43.025379    0.221266
H   74.547165   53.248375   65.783531
H   56.463718   38.628601   28.450096
H   87.800888   84.605682   76.935455
H   13.964137   94.660713   89.911232
H   43.224186   64.160622   97.700943
H    9.245081   74.011292   98.338684
H   95.993202   46.361755   58.941113
H   79.429405   38.679115   17.150784
H    6.384077   26.666094   36.069767
H   98.821365    8.115835   49.648895
H   62.512066   68.357445   55.442421
H   13.315003   80.249321    5.372164
H   21.522047   16.228893   89.046913
H   81.861877   50.614819   44.152596
H   24.640059   83.252342   86.930885
H   49.848412   88.849075    5.316305
H   59.199512   20.682648   45.463860
H   31.445551   64.642365   13.108509
H   99.026695   25.396599   86.696526
H   43.332405   33.478279   94.520584
H   50.594864   93.567993   69.838181
H   90.242912   57.739883   66.986885
H   66.231339   48.001114   96.815063
H   15.478746   59.391876   92.889130
H   88.662895    9.631592   11.765434
H   27.658237   12.135337   64.127434
H   33.144180   10.558163   54.062462
H   37.752346   83.595543   53.604088
H   64.668343   34.626827   19.786581
H   24.947641   76.754112   13.323215
H   48.288094   62.519444   65.328102
H   29.303967   76.093605   46.390945
H   62.916107   41.182003   64.546837
H   93.549164   80.213432   59.087456
H   93.061874   72.732590   31.012526
H   56.456940   71.656754   35.576538
H   83.530952   77.363770   29.929272
H   39.103378   71.562080   79.811539
H   47.824509   86.172188   40.609451
H   54.631229   63.329918   33.444077
H   47.663231   97.978699   23.815855
H   23.561281   69.032112   52.064674
H   42.846298   60.322807   93.840218
H   95.001816   36.476662   74.355774
H   95.903870    0.220282   22.158121
H   89.053894   11.362759   13.555849
H   54.681618   53.538986   43.796978
H   53.174419   67.995132   10.003466
H   83.974525   73.519768   12.598796
H   40.824387   29.877289   50.513542
H   29.225811    8.709971   95.642807
H   22.282812   51.998169   88.828865
H    8.634850   54.954845   93.242332
H    0.090241   70.852425   93.140549
