200
TIME:    0.750, STEP:   750
H   25.142324   60.782413   24.060261
H   32.509827   40.323578   10.601480
H    7.448543   91.460770   70.468437
H   35.033707   82.934761   31.163322
H    9.795342   96.655121   46.325928
H   73.027405   38.972794   50.454132
H   10.748214   54.942268   59.522808
H   14.317441   10.908454    6.969723
H    8.139746   79.860428   35.277973
H   92.908249   67.755028   75.956032
H   29.969774    5.488680    9.078148
H   32.886719   55.635475   37.042755
H   23.691494    3.934088   40.389275
H   80.298637   55.358654   66.841301
H   94.999161   75.870598   41.723747
H   14.434908    4.953068   43.321228
H    8.198617   31.604321   90.670387
H   24.452076    7.684627   34.440739
H   81.994034   11.238316   49.991501
H   91.678795   72.700890   17.700596
H   64.205605    2.216944    2.475345
H   78.675117   68.308235   50.921295
H   79.733070   58.833344   36.899040
H   19.410595   92.708916   89.986885
H   25.413666   33.215408   27.212185
H   18.238920   84.970032   90.112450
H    8.772229   69.030067   69.587387
H    6.214932   91.168022    2.073229
H   32.548809   41.028023   35.352028
H   70.003082   34.426762   80.984146
H   12.695646   72.756325   16.818344
H   22.651875   75.459457    6.159675
H   14.800529   19.959417   79.408630
H   79.547432   64.134331   47.204559
H   23.513765   68.727402   30.339354
H   16.401978   38.293724   85.324638
H    0.902340   63.421387   89.783669
H    7.688445   57.947720   92.237167
H   34.195053   28.138454   55.768036
H   85.191772   37.591244   43.774506
H   80.656059   81.399445   18.452362
H   38.724136   32.412498   24.708332
H   67.519119   76.066154   69.265739
H   36.145096   88.003944   36.988064
H   46.202629   91.855225   62.768303
H   33.882858    0.565814   48.234486
H   89.584900    1.225959    7.360588
H   77.699669   65.542824   29.313309
H    6.803886    9.398539   61.534031
H   43.866703   20.103025   84.136551
H   66.076126   64.040962    7.657176
H    1.642663   44.476055   74.506538
H   65.932335   79.837105   14.593094
H   14.816166   92.946182   89.255577
H   55.611679   65.042694   74.279442
H   98.767998   59.785393   95.348358
H    3.975012   18.675392   44.183857
H   72.980576   70.435242   96.098045
H   17.419653   84.329453   19.461277
H   31.307751   93.125404   57.566360
H   48.767792    5.426168   27.335648
H   99.102715   17.633036   52.975975
H   85.497681   35.771133   67.678955
H   36.483208   65.879951   15.054398
H   79.546692   83.682068   38.784657
H   18.733522   36.374809   42.030472
H   67.124855   12.404206   96.371925
H   94.485435   92.609444   97.368675
H   34.663116   12.745166   55.524651
H   42.301212   50.518955   50.955357
H   58.241432   85.413010   86.923157
H   17.807060   10.416598   41.194843
H   93.680313   34.480083   82.418198
H   24.480631   97.754585   75.420204
H   85.355057    9.127292   43.632538
H   66.204613    1.071351   59.544838
H   93.271973   48.936287   64.931679
H    7.665662   15.256762   30.528114
H   15.408689   52.414146   23.639956
H   60.590519   87.822632   70.075226
H   65.013680   21.482531   93.562012
H   49.061954   59.418209   72.090935
H    9.009957   19.260572   75.357765
H    8.042997   78.536385   10.473445
H   20.747017    4.716894   43.329109
H   39.035194   67.930237   17.166252
H   58.712845    3.846836    2.940555
H   71.090309   99.562744   30.678276
H   81.296036   73.298523   79.007446
H   20.889694    8.907295   49.254696
H   19.864323   39.295452   78.486038
H   80.502953   93.010101    9.495914
H   71.487549   11.110241   81.204758
H   37.158566   76.110970   83.108345
H   38.047401   50.027473   89.180702
H   48.151772   39.111847    5.082642
H   86.223778   96.638908   20.293587
H   92.874977   36.363152   53.422291
H   25.461662   64.669159   54.688614
H   76.071999    6.214273   27.374918
H   32.620632   94.527344   92.954994
H    9.536269   84.372406   63.051414
H   33.751221   18.531401   37.629398
H   46.381767   68.881104   10.415496
H   24.662680   20.770500   41.622303
H    7.613908    1.803419   20.013212
H   89.817467   36.429371   53.885727
H   61.745892   53.855789   99.020821
H   85.757454   33.652008   23.793690
H   20.749750   20.949602    8.033335
H   53.904556   91.634941    1.154673
H    6.471807   76.170105   96.320412
H   48.236198   86.192856   82.842155
H   61.496574    8.402378   61.802757
H   46.831062    3.205508    8.890443
H   93.225273   90.878517    1.941873
H   11.606286   15.624021   90.125534
H   38.183605   52.099209   23.784111
H   38.230408   76.861176   58.334255
H   84.241570   56.853695   68.368210
H   45.877449   25.148487   70.808022
H   96.284012   15.398502   63.189880
H   44.531929    0.312829   39.158756
H   96.563492   48.966614   95.531425
H   61.655907   96.325020   75.945686
H   66.406883   76.305756   15.684243
H   82.709785   51.571213   51.358566
H   64.273201   91.569908   39.309902
H   98.743889   34.022861   73.267876
H   92.464661   21.732067   75.190193
H   69.196190   66.975861   22.901318
H   62.124428   91.109665   21.354038
H   90.772408    7.407294    1.169255
H   75.913162   26.078815   55.983852
H   29.620441   92.148499   32.981445
H   48.774628    0.972313   76.168098
H   69.737061   87.864113   80.727379
H   95.568474   48.297070   75.140129
H   59.643768   51.465820   71.429466
H   43.724205   84.630608   81.286499
H   75.866302   48.070839   31.384369
H   33.760056   56.506699   58.135815
H   38.610809   66.147560   82.182175
H   34.343788    8.066530   86.575661
H   64.274338   52.852936   65.745331
H   64.626686   70.762039    5.420445
H   56.793327   94.544365   43.630199
H   28.726585   54.434547   65.898949
H   78.819305   43.498901   92.874496
H   25.719318   94.242805   70.911621
H   58.244469   69.971298   47.494061
H   55.255913   92.997658   32.170082
H   99.867996   12.768841   85.561798
H   23.391422   12.849136   63.349499
H   33.835964   67.348190   69.979439
H   78.641945   44.793476   69.752090
H   64.649704   76.178680   86.794601
H   53.296928   28.477142   21.672394
H   89.039925   99.812637   83.691002
H   57.961864   36.134796   97.812759
H   58.965599   63.689857   69.855782
H   19.658445   20.413345   31.125755
H   87.172325   12.334015   37.019993
H   29.995089   35.161922   49.379417
H   54.070992   39.393547   14.835655
H   20.700527   48.211918   59.513927
H   66.117867   89.318062   57.628231
H   24.077732   54.136490   69.101883
H    1.003020   26.511675   35.652672
H   49.746918    6.611037   84.660248
H   69.621948   11.698901   35.933273
H   28.544340   46.503967   59.024239
H   47.526878   55.539425   76.074051
H   64.945877   62.339661   86.071777
H   47.733948   91.200027   75.251244
H   16.652519   50.416641   23.778984
H   30.178524   68.853409    8.241539
H    6.250057    9.687233   71.401505
H   62.558750    9.523448   63.170223
H   62.040359   59.925835   93.579445
H   72.106674    3.465608   29.861679
H   29.514475   30.728603   88.234558
H   42.152531   89.629105   16.171021
H   62.587471   26.164051   95.952644
H   92.118195   66.214096   76.295700
H    9.937037   40.527206   86.506691
H   49.110474   95.788963   10.565538
H   65.919479   88.827339   43.372223
H   91.848610   63.447689   72.372116
H   58.887749   55.499035   72.146500
H   72.183060   14.151062   75.659492
H   43.472046   98.788910   18.128378
H   15.428689   29.657108   69.489830
H   26.193830   83.884903   43.591335
H   67.392929   31.475552   20.148022
H   76.573257   11.634886   22.579124
H   12.851306   99.465813   20.680525
H   14.087669   87.270149   32.583664
H    5.112344   13.038916   55.208076
H    2.688478   17.713989   90.663300
