100
TIME:    6.737, STEP:  6737
H   61.726395    4.205747   92.978104
H   14.416592   69.933342    2.894214
H   95.571457   58.590599   44.260723
H   82.607391   55.086273   70.886108
H   34.828354   12.757597   83.037979
H   23.545902   93.909401   45.934139
H   99.884857   16.251484   17.295328
H   90.371376   71.437286   89.624657
H   88.019554   38.558380   76.017448
H   90.748055   13.117950   71.498543
H   73.595703   37.320225   90.807594
H   98.706543   61.381611   13.382172
H   14.164810   54.189869   55.599297
H   21.505013   84.310555   69.929649
H   62.433601   68.250786   26.920475
H   30.644356   22.486488   73.811035
H   82.357582   27.571171   86.684029
H   45.134991   67.016647   65.984413
H   50.195133   60.980804   18.293865
H   11.012344   62.741459   75.018913
H   64.493591   85.527618   74.387550
H    8.263092   53.027451   45.560486
H   95.793541   39.830635   39.597748
H   93.093391   17.422335    6.724775
H   88.631050   51.882957   86.294167
H   15.835276   27.496666   56.899101
H   81.140251   62.430023   33.640415
H   64.092178   70.900093   89.461868
H   57.660530   60.325268   38.709839
H   59.319462   24.099327   18.960701
H   81.199394   26.175716   76.369011
H   91.135651   66.372421   75.586235
H   44.902599   75.571510    4.719121
H   62.756157   56.316849   87.932755
H   13.290823   49.584602   34.935989
H   58.273449   13.099326   98.245399
H   25.965298   57.812134   39.314487
H   85.539787   35.662891   97.853783
H   60.703411   34.627495   91.447266
H   28.643673   81.488174   68.088669
H   74.825531   87.346214    1.066434
H   32.456406   68.022293   23.896248
H   69.265900    3.901209   88.094780
H   49.162601   25.722982   39.443802
H   72.270149   66.082230   32.613956
H   91.162773   91.414810   10.531031
H   94.367477   91.218460   90.133095
H   56.599209   64.758896   85.425323
H   61.956291   74.491066   75.733566
H   67.183838   33.274883   12.480508
H   43.038998   19.229704   24.444675
H   32.544315   38.596085   31.794258
H   48.618877   61.072144   11.593752
H   20.679550   97.280243   29.100792
H    4.384576   49.003830   57.651455
H    1.986685    5.447053   63.283417
H   23.348810   95.152916   96.732109
H   24.404596   40.661278   40.026596
H   21.610214   23.426273   94.284142
H   14.447060   45.616932   71.994286
H   84.675499   65.268082   89.126633
H   59.808632   65.235031   90.525558
H   31.434996   47.562538   71.494141
H    5.656930   78.462387   44.231426
H   99.724838   22.770870   22.956663
H   87.483002    7.356983   44.527863
H   47.046646   81.277100   92.323929
H   14.995264    2.832965   88.270157
H   92.672554   65.708481   37.700077
H   66.872520   86.993584   87.546936
H    8.101767   37.016083   81.334938
H   18.470949   27.937241   49.874023
H   67.726166   85.066971   89.011047
H   81.900642   23.035061    2.864452
H   86.988762   38.246357   12.108192
H   84.924431   39.351337   42.614578
H   78.646088   42.696629   10.223242
H   48.496838   10.203924   86.498863
H   84.576668   33.730030   92.844978
H   69.136246   42.023750   40.522545
H   42.705536   98.979019   82.644028
H   46.835556   88.161224   23.387367
H   44.006050   19.784460   71.541840
H   13.644906   88.658592   48.095715
H   24.293348   27.481743   94.675880
H   96.236435   56.517166    9.620980
H   17.103792   13.517947   44.789574
H   64.378502   65.973450   25.725639
H   95.494003   19.066935   73.090828
H   70.698166   32.097645   65.046036
H   99.728416   37.210472   75.734909
H   76.768677    2.166521   61.889191
H   17.308002   29.662739   39.987129
H   98.372292   21.898767   81.064590
H   40.114342   46.270721   70.895447
H   50.370178   29.694284   19.474365
H   27.850718   54.302261   49.738449
H   25.273355   19.806423   43.635880
H   87.778038   65.894203   80.743019
H   57.670856    5.753105   48.744404
