100
TIME:    7.904, STEP:  7904
H   82.807121   97.186852   91.909683
H   82.187698   33.170269   76.478470
H   15.633455   42.548965   30.558701
H   82.803268    7.005039    6.916843
H   24.372393    6.297724   51.394928
H    5.446378   92.645103   61.506531
H   38.721470   95.052887    8.556263
H   98.647476   72.397667   82.474907
H   59.332466   26.355900    2.557809
H   58.873512   29.874727   17.192841
H   65.044205   84.277298   78.395782
H   54.169250   19.877026   30.313210
H   39.737953   83.567123   39.629124
H   63.722343   80.713539   58.739056
H   76.607979   64.008591   70.796906
H   83.720123   20.416382   76.939728
H   88.514290    4.759873   92.920654
H   70.089340   10.230330   25.534649
H   68.369324    9.934445   79.774841
H   79.568283   37.963009   54.473671
H   95.242165   69.349854   42.714870
H   20.144518   54.576660   46.179657
H   80.212410   30.340281    6.206824
H   84.662567   31.383028   20.053730
H   46.891426   59.334496   94.912758
H   10.339352   93.093552   47.081184
H   80.508591   13.916398   56.798428
H   65.624138   25.371695   28.036001
H   83.035515   66.204697   83.546165
H    4.068217   95.215134   11.734097
H   27.127031   30.822941   84.039757
H   64.820671   34.132183   67.551201
H   27.103708   90.188484    9.851697
H   12.064311   49.368233   38.767609
H   84.246864   61.226311    5.936789
H   59.718830    4.503781   94.577156
H   37.895535   15.073553   31.269499
H   37.305534   14.303564   80.204384
H   11.440534    9.203081   78.356163
H   18.725338   72.237946   59.905853
H   95.069626   27.388266   28.559294
H   34.107964   72.598694   83.473106
H   79.309052   10.901596   72.386818
H   74.645767   45.310692   53.546009
H   71.041542   20.041813   32.477081
H   76.098045   13.671157   15.272146
H    3.486787   54.684761    1.334557
H   56.670040   76.778625   57.632275
H   96.073982   77.840462   29.179661
H   91.686279   51.037373   30.884331
H   42.958866    6.563066   36.746582
H   89.262619   30.305937   55.188507
H   72.824257   67.838806   43.819496
H   93.655334   78.244553   80.598404
H   11.466469   51.274193   67.575653
H    3.440181    4.219482   23.555984
H   97.332031   61.479866    7.723626
H   37.507248   30.452429    9.965552
H   13.645782   72.741203    4.695732
H   37.436081   35.316074   38.802025
H   58.291119   10.999504   98.138710
H   18.389534   54.372757   37.723351
H   10.662684   67.928253   91.469452
H   85.793510   84.819489   12.544101
H   46.046829   29.564634   31.634493
H   15.792999   49.342033   13.530442
H   53.415955   21.624722   48.667706
H   34.382530   69.575493   44.059509
H   50.837524   81.855309   64.509155
H   90.550880   45.640987   85.079346
H   71.044701   57.614197   67.338631
H   22.392502   89.155663   35.406345
H   91.635147   27.348444   59.093685
H   56.207836   49.174885   33.524109
H   43.214294   39.953419    0.588399
H   12.510758   14.144657   64.089058
H   84.634483   41.689629   30.919436
H    3.324281   33.899410   50.949009
H   40.538162   30.302181    5.864946
H   11.905931   78.450920   39.984474
H   65.548958   11.052865   52.394196
H   34.406494   95.729202   25.755898
H   17.819864   39.300938   82.680191
H   93.932137   88.521362   41.508617
H   67.471085   54.477077   81.548912
H   69.383469   99.380188   90.660843
H   95.045067   28.667290    0.436475
H   83.147087   72.588928   13.625778
H   19.714787   54.089958   63.546272
H   67.519897   84.084000    6.766941
H   47.486958    0.225661    0.379820
H   63.114857   89.936020   84.129295
H   92.115234   64.680046   30.233034
H   11.157328   92.699425   59.753353
H   19.936340   41.737831   97.712799
H   46.759598   83.612000   59.197060
H   35.219627   21.273533   82.622246
H   23.020769   77.548668   20.208521
H   32.184563   70.933586   82.994545
H   30.159166   75.802780   36.322971
