100
TIME:    5.144, STEP:  5144
H   69.454750   50.290291   94.436539
H   58.410286   83.609711    2.450725
H   68.177185   43.983582   62.965153
H   82.340012   20.717758   58.204155
H   49.096710   85.071793   26.229343
H   48.254223   95.635216   88.173759
H   83.372841    8.684361   92.720505
H   15.578041   33.623211   35.889027
H   27.178596   91.718674   76.291161
H   34.267326   90.243584    9.121794
H   21.772675   73.222610   44.253201
H   59.510841   81.532890   26.773146
H   15.817703   50.522774   13.888184
H    0.381219   89.220619   48.701462
H   43.070198   10.544806    3.504067
H   94.694092   61.815994    6.043873
H   10.457273   22.206791   41.666962
H   11.068820   44.527981   21.208170
H   25.387962   94.149261   34.367756
H   53.926796   96.576698   66.560066
H   59.024467   44.116302   17.627655
H   55.540634   50.912720   81.219177
H   17.064217   52.786400   85.173843
H   41.106289   98.365448   25.034576
H   45.604645   78.215073   74.529457
H   23.097067   74.589233    6.699810
H   18.505625   28.646484    2.029894
H   98.506569   96.544250   36.806084
H   23.022697   15.796061   14.012722
H   98.237778   63.525688   92.322212
H   18.503483   83.327805    2.402031
H   90.552620   10.390420   23.058174
H   32.693378   92.123207   61.209099
H   95.447205    2.305898   55.042320
H   52.905716   70.073105   37.961548
H   19.796713   88.328545    3.254383
H   73.174927   16.151165   13.792272
H   51.379871   64.819099   85.439339
H   27.942333   69.338249   45.820221
H   78.685692   30.618969   42.753757
H   83.696030   32.686172   63.536114
H   69.307060   42.723587   44.466999
H   55.549122   94.346985   73.029640
H   50.880978   98.984619   83.689011
H   10.452181   28.935921   96.296043
H   11.722446   61.030750    4.058749
H   81.922165    4.585556   74.843834
H   56.514133   48.351501   86.859520
H   15.395752    6.424447   39.277893
H   33.762844    9.026320   23.886314
H   43.152164   73.023392    7.652932
H   55.120979   86.414734   36.368187
H   15.573209   51.835388    4.112989
H   57.565804   23.273720   58.806725
H   31.222496    9.400149   44.100163
H    0.002507    7.122734   17.512909
H   22.359528   41.118919   45.224709
H   43.022354   91.100075   81.057236
H   95.973747   56.115814   16.574947
H   19.568432   23.172810   17.302986
H   84.187866   39.352093   13.329822
H   16.345701   80.062454   62.606575
H   23.286100   56.265915   80.730927
H   96.268471   69.784698   87.479584
H   36.496391   50.001865   74.607262
H   85.342033   86.549675   50.336754
H   74.855621   26.204571   15.414474
H   25.034660   11.727870   12.115546
H   13.277416   80.171303   37.610191
H   34.603561    6.869799   90.901337
H   58.687553   45.402557    0.440541
H   49.820312   80.805511   33.241074
H   71.592834   63.861084   29.856041
H   16.970211   23.855591   97.515099
H   10.184871   35.973629   91.347748
H   47.267097   37.254807   49.802929
H   33.996555   80.698921   82.022682
H   73.654800   14.366428   98.522530
H    8.187545   38.409176   75.076378
H   47.253754   28.799789   77.761078
H   11.531923   82.498703   87.434090
H   27.286026   77.821793   56.639549
H   43.244804   93.145203   19.831930
H    4.049368   52.342453   93.592499
H    1.858489   27.124474   49.099251
H   32.902348   98.001198   98.998032
H   10.710867   29.342224   68.829285
H   38.755814   93.453949   42.248146
H   62.436142    7.762907   86.119514
H   11.539578   97.635910    8.103951
H   34.536369   51.192028   42.093670
H   58.902805   82.357468   31.541586
H   15.193629   81.867195   16.797993
H   44.415344   25.253897   73.651192
H   67.654457   88.961174   34.288731
H   18.794937   92.601227    1.754471
H   54.295677   62.884289   41.353012
H   25.747046   60.035767   73.718758
H   63.664795   59.024059   14.172607
H   58.723301   46.629566    2.202235
