100
TIME:    0.801, STEP:   801
H   63.153969   48.565498   98.412674
H   78.988945   48.174755   28.527006
H   93.526733   31.530663   13.934814
H   81.611053   99.647850   96.257195
H   87.996567   36.961205   43.986336
H   15.595432    0.341868   58.072018
H   10.990662   15.424301   53.092014
H   56.929276   57.897709   34.648979
H   33.937889    9.280537   49.667625
H   52.950493   27.885624   39.056961
H   25.747955   98.472687   62.592163
H   25.268085   63.840691   35.912483
H   92.310989   13.245914   45.515785
H   15.420803    2.607600   18.196133
H   90.244316   98.476196   12.268480
H   69.317642   41.676098   66.550278
H   59.667336   34.968399   46.284050
H   18.261101   55.748062   71.777145
H   57.737144   11.955073    5.563610
H   70.967049   88.738068   70.833870
H   16.744064   76.475677   35.503548
H   39.153004   45.157166   51.052494
H   75.049522   88.107735    9.431908
H   44.619965   46.288486   47.586113
H    0.936327   22.649181   42.472572
H   42.986187    3.743023   14.095729
H   93.007523    9.179725   15.861113
H   64.953880   93.827164   93.249985
H   28.588165   21.764929   19.308521
H   31.706446   71.015091   47.065517
H   47.610813   93.872581   46.027306
H   16.332617   30.381454   25.111473
H   26.778797    9.877550   69.957359
H   11.946206    0.315952   38.005745
H   60.861717   98.370552   73.503036
H   42.199158   47.407970   17.888205
H   56.624660   75.201515   71.581001
H   30.883980   44.293613   78.965355
H   14.709829   63.409004   65.355743
H   87.748100   37.196232    1.054671
H   80.501740   83.665337   61.214840
H   59.631859   47.808090   40.432377
H   18.140318   68.303299   59.329178
H   28.209669   26.195047   59.050423
H   87.174538    0.288879   24.651434
H   67.721382   78.262016   86.459419
H   44.537891   68.951569   34.467720
H   56.282192    3.630474   18.139235
H   88.444756   66.109360   12.521235
H   42.689320   42.941128   27.641922
H   43.483509   92.311836   61.862492
H   44.059486   89.412155   21.477402
H   25.495020   26.653198   56.350197
H   58.140751   94.134239   67.162491
H   76.992676   28.724428    7.203114
H   94.568466   11.690132   65.358871
H   47.030869   66.434441   32.169304
H   66.414490    1.242738   92.922806
H   53.449226   72.612625   49.990765
H    6.161798   89.354996   40.827232
H   10.228085   41.320480   51.942650
H   70.482086   20.489761   59.113876
H   28.563900   52.531548   78.606300
H   98.042061   46.151726    5.391493
H   64.117439   96.869164   70.157555
H   52.138588    2.453068   93.547234
H   23.303106   76.054016    5.734065
H   25.035393   63.347214    4.495032
H   96.822868   92.231583    9.994267
H   46.612076   88.431297    0.046384
H   96.596062   40.902386   52.540684
H    7.921400   24.942039   15.266657
H   54.765289   78.685158   41.210186
H   12.560609   98.690201   55.602791
H    0.792202   29.783426   62.119190
H   44.596073   58.910431   42.032322
H   39.680569   57.120476    5.207525
H   69.612762   98.344902   58.677792
H   99.945107   51.156101   26.619892
H   60.242996   65.331779   51.914276
H   26.556828   37.568371   27.862122
H    1.422307   49.458694   19.798828
H   68.476997   20.626471    6.191179
H    5.270552   80.704201   90.267586
H   13.327164   98.779984   70.104515
H   32.856754   38.476597   97.406990
H   20.651709   45.113701   61.737865
H   68.849686   41.163872   87.414421
H   72.305611   49.573463   21.646900
H   95.517258   76.325226   52.847897
H   56.802769   16.683889   50.377392
H   37.552845   55.748787   48.784729
H   36.677071   51.630394   80.882225
H   24.647264   61.820717   80.825447
H   42.743793   77.981232   34.491722
H   60.080902   64.100395   26.076439
H   99.023117   13.647994   91.122604
H    9.806153   23.057709   43.219994
H   70.554283   40.303089   77.955116
H   88.986252   58.130466   20.538225
