100
TIME:    7.962, STEP:  7962
H   78.884758   91.867943   91.856583
H   80.585831   36.313381   80.135330
H   16.630419   46.721786   29.877907
H   82.813004    4.615292    3.737609
H   23.852671   10.946660   49.822266
H    4.546876   92.582268   67.250435
H   35.681904   98.969055   13.091938
H   94.088791   77.415672   77.149803
H   57.906715   20.779232   98.906967
H   57.289345   30.707521   19.463997
H   59.649185   86.611069   72.808716
H   51.955399   22.784283   26.184860
H   36.039497   80.056290   33.865498
H   60.850487   80.534767   63.153042
H   77.312447   58.827744   68.007355
H   81.388123   15.343491   72.125275
H   83.850288    8.596012   98.200623
H   71.329239    7.408132   23.524128
H   69.272919   12.367780   82.830780
H   78.005356   36.731518   58.422585
H   91.800362   63.576015   41.140881
H   25.705034   54.653656   41.240417
H   79.438026   29.868792    4.547320
H   79.273743   32.076874   15.746160
H   44.816963   54.734657   95.341103
H   10.065884   91.383713   41.622887
H   75.507401   11.505300   57.949383
H   60.730331   28.078939   29.953154
H   84.296654   71.466965   80.804405
H    6.292136   93.779648   16.344776
H   29.409693   36.023750   79.450981
H   68.482841   32.529873   62.181847
H   31.189135   85.944862   15.076795
H   14.515014   44.052864   36.324097
H   82.803413   56.834892    9.465687
H   64.760727    9.046758   94.394844
H   43.458263   12.949308   35.839687
H   34.908485   13.242105   84.297554
H    8.992265    7.939508   72.735466
H   13.262394   66.808411   64.469360
H   91.105667   29.378210   29.925749
H   29.220055   72.826141   86.434349
H   79.808197   11.249516   76.576454
H   70.942001   46.284203   59.216709
H   66.010262   17.753620   37.440216
H   75.349327   14.777198   15.507780
H    3.940189   57.838936    1.891588
H   56.673580   77.376007   61.220989
H   97.769661   73.036629   26.866024
H   92.904053   51.920170   26.828995
H   42.954884    0.963391   37.358124
H   92.081375   24.923971   51.381195
H   74.026985   68.175110   40.451149
H   92.311890   77.298477   83.157852
H    6.848280   56.357246   68.068604
H    3.512420    4.158472   21.581528
H    1.009154   59.806313   13.240003
H   33.188400   24.974882    8.471545
H   18.220177   75.191795    0.243026
H   33.608856   39.774311   37.152367
H   61.949749    8.302326   93.616310
H   16.331001   53.832901   35.098854
H   14.600314   63.970490   87.492218
H   89.776054   85.135437   10.969337
H   48.349182   24.932272   37.035721
H   12.230171   46.458672   16.959934
H   48.762573   23.629932   51.467876
H   30.376091   72.892509   46.832245
H   53.728409   77.687798   60.871384
H   91.728828   48.553997   84.956329
H   69.202995   53.667938   66.643013
H   17.616325   87.229881   39.657490
H   87.853500   24.479464   57.606426
H   54.931210   45.504307   30.078005
H   46.008270   40.038822    4.985923
H   13.881970   17.861919   60.186600
H   89.902061   36.669411   31.948038
H    6.048949   30.107143   54.152302
H   43.319305   30.131817    6.512220
H    9.061620   75.291435   34.987709
H   66.684425   11.652902   55.860779
H   38.758530   96.105331   20.903610
H   21.488451   40.270908   88.203537
H   97.922646   93.484497   36.211391
H   64.647018   50.848980   75.926445
H   68.048874    1.510566   94.688522
H   98.918755   24.450218    3.202160
H   84.079887   67.947937   13.024414
H   20.918621   50.860558   63.071907
H   62.392010   81.698013    8.840219
H   49.860554    3.357358    1.604718
H   67.406273   94.298233   85.234673
H   95.833160   66.419975   34.718262
H   16.762758   96.218224   63.664211
H   18.933403   36.542381   99.045624
H   51.550156   81.321594   56.201302
H   30.615873   24.601833   79.286644
H   22.908815   80.418755   19.044069
H   29.421562   71.184044   78.136726
H   33.761600   74.314194   30.735462
