100
TIME:    0.298, STEP:   298
H   97.170326   94.693275   98.873184
H   92.980782   20.901817   96.798309
H   84.884491   95.343498   19.840858
H   81.526627   20.372694   23.828520
H   92.501892   96.643539   57.625114
H   23.395325    0.889314    8.257086
H   37.352383   81.460258   13.756707
H   96.464081   14.383291   80.832924
H   46.302589   57.641922   81.329445
H   66.696724   20.665207   19.358637
H   72.535797   78.233261   11.044952
H   44.467525   38.627754   71.717155
H   24.306950   43.678055   95.510429
H   40.326710    4.158464   79.918251
H   84.127205   43.404030   36.447689
H   89.541718   85.672127    8.303120
H    0.107809    1.704299    0.487317
H    7.512761   80.208832   89.215134
H   49.904633   90.854034   79.061981
H   84.582802   99.283752   36.518181
H   46.592804   26.550468   49.153839
H   90.921913   44.493263   93.881111
H   81.765297   92.198601   23.824333
H   91.354080   40.255802   84.942856
H   18.925173   62.540882   38.758987
H   45.292576   18.730061   61.241158
H   36.381733   30.089123    5.879654
H    7.396988   70.348816   76.625565
H   17.651047   76.128960   43.085175
H   12.420482   83.464218    7.079060
H   27.824221   48.765602   85.830742
H   84.573334   44.277351   71.676735
H   91.348328   46.678841   24.643148
H   90.693123   46.412720   59.196892
H   73.364571   36.393753   42.874077
H   98.464653    7.895021   19.618956
H    8.381436   93.621925   31.946423
H   51.672180   53.499981   43.469906
H   37.323307   74.146568   13.564364
H   35.125362   84.285591   61.481194
H   14.877171   66.403877   49.360538
H    4.838638   25.231577   16.800528
H   13.808169   65.286957   22.998280
H   60.330032   17.765791    9.868790
H   30.806503   20.134235   81.607971
H   74.145500   68.806206   84.486900
H   39.226673   41.816700   30.169622
H   56.255329   98.450943   87.016510
H   73.739128    7.769540   32.586273
H   32.139797   35.285145   62.821068
H   43.521885   40.873894   56.558949
H   19.615038   36.086601   54.499825
H   15.060711   23.736633   85.562904
H   69.785919    2.339831   44.965900
H   17.035316   84.629242    2.934819
H   93.939102   12.218769   82.482178
H   15.144346   80.948189   84.329659
H    3.869469   48.744316    5.878939
H   13.780106   51.360077   88.605942
H   39.353333   50.693840   55.133751
H   78.498611   64.710678   91.161591
H   88.334534   25.171616   81.871582
H   94.445717   86.831886   13.114146
H   63.503738   43.415527   19.049459
H   44.150505   37.043308   23.313009
H   83.038826   27.458668   63.805950
H   63.659569   58.663258   81.449448
H   59.780891   34.580673   80.448723
H   71.755760   28.373940   41.542873
H   36.423286   63.133804    1.104116
H   12.569380   75.128563   58.573368
H   49.395115   41.635536   78.440315
H   87.561295    3.567509   54.108311
H   23.631744   30.521341   85.497581
H   76.538742   29.067717   23.988537
H   32.703396   26.671194   75.877335
H   94.011230    0.715478   96.306091
H   45.980911   31.234921   30.897511
H   75.837395   52.628567   21.011261
H   84.910995   92.724464   95.248291
H   16.713421   32.364605   97.799774
H   63.683384   46.173721   61.862045
H   36.651363   12.231322   58.282867
H   70.670380   37.661839   36.211159
H   37.819992   30.243744   18.864574
H   44.434750   19.999870   62.477283
H   87.057457   81.685890   37.752956
H   60.752380   81.435493   92.641212
H   61.867378   77.580162   25.762711
H   39.988564   97.025162   34.864971
H   36.217960   89.522766   39.754955
H    0.335615   17.918585   39.202278
H    4.404617   36.560196   41.969109
H   76.031044   31.308119   46.910801
H   51.439762   23.036373   22.934422
H   18.535202   83.963737   52.056892
H   38.948204   84.782097   20.050758
H    7.959326   18.774963   51.267410
H   94.516167   38.134853   20.090061
H   57.748302   71.049522   68.984360
