100
TIME:    0.855, STEP:   855
H   59.502113   43.613411   98.363235
H   77.486839   51.102749   31.933317
H   94.454529   35.415676   13.300766
H   81.620117   97.423119   93.297478
H   87.512894   41.289543   42.522133
H   14.758068    0.283098   63.420025
H    8.160618   19.070784   57.314884
H   52.684982   62.569233   29.690712
H   32.610466    4.088570   46.268318
H   51.474754   28.660778   41.171692
H   20.725006    0.645487   57.390823
H   23.206913   66.547447   32.068642
H   88.875839    9.978752   40.148827
H   12.747108    2.441106   22.305706
H   90.901024   93.652649    9.672651
H   67.146469   36.952663   62.067856
H   55.325813   38.539505   51.200706
H   19.415077   53.122055   69.905075
H   58.578011   14.220592    8.408426
H   69.505318   87.605927   74.517860
H   13.539627   71.100067   34.038109
H   44.330860   45.228439   46.454304
H   74.328545   87.668556    7.886852
H   39.602783   46.936131   43.575417
H   99.004997   18.366573   42.870964
H   42.738583    2.134084    9.034362
H   88.351242    6.934934   16.932692
H   60.397629   96.347702   95.034714
H   29.762329   26.664076   16.756054
H   33.777065   69.678604   51.358425
H   49.735020   98.715080   41.754173
H   19.742224   28.889648   20.112419
H   30.582470    5.926771   74.822105
H   14.227895   95.367165   35.730751
H   59.519463   94.288582   76.791519
H   46.894165   51.649792   17.702398
H   61.803753   73.223976   75.836006
H   28.652245   43.305256   82.776237
H   12.282091   62.256264   60.180054
H   82.661705   32.140736    5.303293
H   76.811157   85.518456   62.487469
H   54.778648   50.231812   42.969395
H   18.605452   68.627121   63.229462
H   24.761541   27.099977   64.330452
H   82.490242   98.158127   29.272490
H   67.031715   79.277153   86.671181
H   45.108082   71.864319   34.929146
H   56.285076    4.186468   21.480452
H   90.023491   61.637047   10.367057
H   43.821873   43.763042   23.865234
H   43.479389   87.098549   62.431858
H   46.683846   84.401566   17.932251
H   26.615213   26.966309   53.213737
H   56.890369   93.253410   69.545425
H   72.694000   33.458431    7.661346
H   94.636032   11.633381   63.520584
H   50.454071   64.876305   37.305138
H   62.393494   96.143166   91.531937
H   57.707939   74.894211   45.844936
H    2.598458   93.505356   39.291344
H   13.634499   38.809418   47.732552
H   68.565521   19.987137   56.670380
H   32.226685   48.849205   74.901711
H    1.750059   46.445473    3.925230
H   66.260597   92.556480   75.186272
H   48.821266   99.768593   96.740135
H   18.970442   77.921143    8.341282
H   21.305260   66.435471    7.076545
H   99.513969   88.351486    6.607422
H   47.705902   91.147118   99.932739
H   94.881371   37.227871   51.893040
H    3.468950   23.149895   19.220293
H   51.244446   76.013832   39.825497
H   11.372128   95.273178   52.393410
H    3.395698   29.860262   66.212700
H   45.872822   62.371536   38.399006
H   44.583630   52.440300    6.163027
H   72.149780   94.814171   61.660168
H    2.533566   50.997898   27.222012
H   57.594742   62.390785   47.262115
H   27.613575   38.127026   31.089424
H    5.474010   49.811356   15.283224
H   71.894020   21.527693   11.334326
H    8.985376   85.325050   85.335274
H   10.697758   95.402512   64.869804
H   31.613789   40.460316    1.156922
H   24.258245   41.187462   64.312790
H   69.718979   36.840477   86.853294
H   73.426216   46.566780   21.205044
H   90.743149   74.102966   54.778469
H   59.012669   19.599730   51.517773
H   41.548298   59.810158   49.813461
H   40.141884   53.248268   85.059776
H   29.866732   65.096291   84.466591
H   41.810230   73.144501   35.732628
H   64.541077   61.967949   23.287285
H   94.736801   16.746885   88.017044
H   10.004422   23.517487   42.356056
H   67.981834   40.535862   73.431496
H   92.339828   56.743305   15.337105
