100
TIME:    7.447, STEP:  7447
H   13.712225   39.095100   92.328079
H   94.809311    8.404981   47.662952
H    7.778058    9.671195   35.924160
H   82.726562   25.834602   31.966858
H   28.467443   69.667229   63.786423
H   12.533832   93.140205   16.247150
H   62.671154   64.196182   72.818253
H   34.566780   32.861988   24.434753
H   70.566399   70.294678   31.324348
H   71.355659   23.312883   99.297920
H    7.553223   65.888794   22.417109
H   71.611359   96.970444   62.843407
H   68.879234   11.229002   85.044136
H   86.350594   82.122139   23.959888
H   71.057259    4.830070   92.776642
H    2.094859   60.387146   14.874727
H   25.263771   74.531235   51.318142
H   60.318478   32.467850   41.375137
H   61.250965   90.763306   55.697353
H   91.883072   47.666309   23.358957
H   22.361176   14.844528   55.116825
H   76.331482   53.969986   85.097458
H   86.314018   34.056252   19.282789
H   27.123919   25.915987   53.995491
H   63.236763   95.575012   91.537697
H   12.494091    6.565037   90.086693
H   19.915419   32.913498   47.729694
H    4.186013    4.040473   12.929986
H   73.098610   24.741964    5.149023
H   86.544647    6.526270   75.403862
H    9.140901   89.842636   20.196068
H   35.965298   46.757282    9.857933
H   94.913216   23.624163   68.681526
H   92.754784   91.249672   58.020798
H   95.620262   95.827660   78.133759
H   19.992657   68.709763   96.013649
H   94.063400   31.811136   95.259918
H   56.192627   22.667820   47.954758
H   30.731869   19.159163   22.642551
H   61.768364   15.019856   23.948595
H   26.301527   11.708875   17.792570
H   72.621315   70.806564   60.141132
H   75.376129    8.160231   39.377972
H    3.828512   37.640099    8.864038
H   10.684090   38.071194   93.369576
H   81.997429    4.956165   13.415514
H   99.914352   29.831886   96.947517
H   56.642147   72.071671   29.355679
H   82.713203   15.689976   47.410995
H   82.091064   44.081539   62.839264
H   42.990246   50.683929   31.928082
H   67.052765   72.713074   85.187500
H   63.347347   65.188965   70.359749
H    4.239349   85.698975   60.431717
H   47.853958   11.224036   63.691265
H    2.870989    4.700202   39.113342
H   68.358109   74.666313   64.259117
H   71.536789   73.610039   21.737722
H   77.603081   53.430317   39.779594
H   67.592384    0.188323   51.800194
H   29.463480   32.252052   33.769180
H   34.609352   58.626450   58.402573
H   79.637932   99.112701   22.807312
H   54.412746   82.330032   24.952785
H   27.906269   66.065887   89.075356
H   43.866364   72.060936   86.508606
H   90.081390    5.825543   26.603865
H   65.950508   43.439690   22.212265
H   28.059349   14.692398   93.169281
H   81.269463   22.688478   86.048630
H   85.556068   88.707993   72.819618
H   60.024181    4.329726    1.908995
H   21.432974   49.952648   70.810364
H   66.267555   78.098206   60.678009
H   21.200548   39.280499   65.938248
H    1.706346   84.855980   94.841164
H   43.129597   81.243965   22.814756
H   81.853928   63.780636   25.709269
H   18.624670   31.644535    0.764847
H   34.316605    3.345653   79.355537
H   56.602257    6.324990   25.079910
H    0.114139   92.765564   63.987118
H   88.914314   31.658239   39.158043
H   62.489841   49.415279   83.248711
H   89.722778   83.066307   25.849371
H   79.899155   82.595535   58.925507
H   64.523079   61.894905   78.645012
H   75.797264    9.157175   18.364113
H   10.229402   79.535408   67.283943
H    7.923499    2.884464   90.429489
H   28.784657   75.547295   90.728806
H   29.301485   55.564789   75.419685
H   62.820545   50.967289   94.892525
H   66.989174   64.973717   28.938547
H   27.838795   82.672806   87.211060
H    9.013305    1.658705   82.801567
H   71.494560   95.047958    8.904784
H   23.902887   54.935764   29.383596
H   53.955101   68.960152   21.272724
H    1.774065   87.531815   80.347397
