100
TIME:    5.164, STEP:  5164
H   68.102211   48.456184   94.418228
H   57.857918   84.693390    3.711797
H   68.521118   45.422485   62.730320
H   82.343369   19.893707   57.107811
H   48.917572   86.674881   25.687122
H   47.944012   95.613548   90.154350
H   82.324562   10.034878   94.284531
H   14.006081   35.353405   34.052631
H   26.686958   89.795761   75.032310
H   33.720757   90.530754    9.905027
H   19.912323   74.027359   42.326778
H   58.747444   82.535393   25.349577
H   14.541458   49.313362   11.900879
H   99.390938   89.158974   50.223526
H   43.313423    8.758346    2.542659
H   93.889954   60.066727    4.383659
H    8.848959   23.529575   43.487640
H   11.496486   43.554928   20.514887
H   25.699471   94.988190   35.421375
H   53.388008   96.151894   67.921761
H   57.837639   42.125183   17.084824
H   57.458054   50.939270   79.515991
H   16.797188   52.623741   84.601639
H   39.247921   98.604706   23.549210
H   44.889313   76.629074   74.677162
H   23.005896   73.998108    4.819107
H   16.781000   27.815109    2.426756
H   96.818947   97.477783   37.467247
H   23.457573   17.610563   13.067364
H   99.004684   63.030693   93.912178
H   19.290607   85.121323    0.819695
H   91.815437    9.837861   21.206673
H   34.102222   90.659889   63.010857
H   96.292236    0.473038   54.199730
H   52.408585   68.561264   39.179352
H   21.535223   89.895012    3.191479
H   75.093262   15.418667   15.368161
H   50.553303   64.453194   86.850777
H   27.098064   68.902458   43.882050
H   76.801842   28.746639   44.327396
H   82.329147   33.372360   64.007301
H   67.509575   43.621262   45.406483
H   55.721394   94.466919   74.474342
H   49.603970   99.320312   85.644577
H    8.717333   28.146889   98.007469
H   11.464382   61.412220    4.140059
H   82.078415    5.673260   75.035789
H   56.515202   48.557495   88.097008
H   15.980316    4.768086   38.480011
H   34.182308    9.330732   22.487541
H   43.150639   71.092545    7.863770
H   56.092964   84.558960   35.055168
H   15.988057   51.951355    2.951405
H   57.102699   22.947334   59.689293
H   29.630013   11.152888   44.270298
H    0.027422    7.101696   16.832062
H   23.627380   40.541832   47.126869
H   41.533096   89.211342   80.542099
H   97.551201   56.960846   15.039532
H   18.248699   24.710133   16.734138
H   85.449463   38.422070   11.770488
H   15.635939   79.876297   61.701576
H   24.643904   54.901169   79.359467
H   97.641762   69.893646   86.936676
H   37.290306   48.404423   76.469749
H   84.113396   85.555412   51.519310
H   73.251007   26.896023   16.380127
H   23.653130   12.871745   13.071662
H   14.274235   78.734230   36.355766
H   35.008682    7.875753   90.859222
H   58.052483   44.041779    0.200616
H   48.171295   80.141754   34.705460
H   70.288818   62.871857   29.343193
H   16.529995   22.589798   96.326744
H   11.149112   36.002163   92.863861
H   47.739967   38.536697   48.457256
H   35.812504   78.965523   82.376381
H   74.594437   13.058674   99.626961
H    9.146598   38.350430   75.299461
H   46.272919   27.710541   76.038055
H   11.923273   82.705612   88.629463
H   28.786728   77.952408   54.967186
H   44.509911   93.479675   21.736685
H    5.425329   54.053879   91.765717
H    0.884625   25.873405   47.160469
H   32.441990   98.735756    0.386894
H   12.046621   27.888062   69.782959
H   39.077774   91.852692   42.040169
H   62.851181    6.649359   85.955940
H    9.771276   96.813156    8.818863
H   35.354851   52.271893   42.516033
H   60.382603   83.861679   31.922598
H   16.475649   82.467171   18.344624
H   46.348480   26.467047   74.999763
H   67.308693   87.169792   34.748325
H   20.446854   91.811432    0.721413
H   52.708153   64.032051   40.202805
H   25.820440   60.206055   73.398628
H   62.712036   59.110271   12.497345
H   59.965519   46.116413    0.275543
