100
TIME:    8.345, STEP:  8345
H   52.983635   56.744804   91.505936
H   70.007980   57.068760    4.283508
H   23.213816   74.276794   25.382320
H   82.877289   88.835747   82.745186
H   20.420713   41.645802   39.437271
H   98.607544   92.167336    5.178966
H   15.609107   24.832041   43.043034
H   63.985748   10.551053   41.983925
H   48.491844   83.954880   74.799988
H   46.828377   36.206837   34.461220
H   24.023453    2.021943   35.917038
H   37.336342   41.982204   98.923363
H   11.616804   56.873581   95.804199
H   41.886330   79.354256   92.297737
H   81.964363   24.616287   49.588989
H   65.988876   81.844688   40.333282
H   53.051796   33.927547   33.066628
H   79.516846   88.771400   10.248074
H   75.239761   28.436176    3.010106
H   67.684647   28.598818   84.499031
H   69.072594   25.446079   30.746943
H   62.423618   55.162094    8.624405
H   74.324425   26.755339   93.589294
H   43.687248   36.658661   87.301727
H   31.118450   24.359863   98.169655
H    8.260052   80.092880    5.580160
H   42.480392   95.584488   65.549057
H   28.415129   45.956089   42.614197
H   92.624519    6.215933   62.699333
H   20.977421   84.300491   46.791870
H   44.484341   70.367241   49.149239
H   92.665794   21.949100   26.725594
H   58.168453   57.922325   49.580460
H   30.698765    8.953249   20.189562
H   73.271660   27.836388   32.768894
H   98.054657   39.046410   93.190956
H   80.192741   98.922127   66.018700
H   19.078503    6.232819   11.325477
H   92.826073   99.595482   35.619484
H   77.187225   30.952108   94.601624
H   64.929871   42.518707   38.949062
H   96.942642   74.328079    5.988232
H   83.104279   13.546984    4.242168
H   46.486950   52.715065   96.665436
H   32.789131    2.643588   70.215385
H   70.405205   22.080883   17.063776
H    6.934203   78.667366    5.569833
H   56.696957   81.320786   84.918877
H    8.964897   41.316856   11.587831
H    0.945294   57.749676    0.049465
H   42.928585   63.987633   41.396408
H   10.695461   89.384811   26.239471
H   81.969139   70.395874   18.207537
H   83.440521   71.051117    0.059033
H   76.353432   89.920670   71.323776
H    3.989446    3.755593    8.543304
H   25.288963   48.755089   49.666435
H    4.670224   88.804710   98.605980
H   48.427746   91.374153   70.841263
H    8.335753   69.213531   26.258934
H   86.109329   90.490479   63.752903
H    2.737570   50.267990   17.769329
H   40.602734   37.835602   61.228760
H   16.075581   87.221786    0.570214
H   63.552650   94.342407   72.702362
H   88.702492   27.418541   39.605885
H   18.033545   36.870701   69.958664
H    3.919443   94.796257   65.141861
H   72.816864   50.167854   36.849144
H   99.507347   67.790482   84.143997
H   57.039715   27.606915   62.049538
H   86.076797   74.513084   67.730087
H   62.881592    5.534348   47.785389
H   46.501072   21.265186    7.322466
H   64.458145   40.602779   34.025059
H   22.937258   42.409286   34.416969
H   24.687023    3.518711   38.741814
H   24.041159    5.065105   75.306641
H   61.684441   29.006824   10.786461
H   90.279106   54.427940    1.992084
H   74.182426   15.615212   78.752182
H   67.497330   98.589081   88.861351
H   45.714600   46.676060   24.678562
H   24.272415   26.259119    1.231194
H   45.998444   26.891026   38.798775
H   59.234364   15.578815   21.285507
H   24.498537   96.602669   21.465111
H   90.239586   37.298843    9.053337
H   28.868080   29.535547   59.939461
H   28.528429   65.942276   22.531141
H   65.534477   24.037205    9.693259
H   95.744392   23.103035   92.533974
H   20.383930   77.909508   64.336243
H   53.777069   19.454334   89.489357
H   12.310558    2.234559    7.846207
H   83.184357   66.197021   36.418968
H    0.215867   46.581062   57.260170
H   22.169535   99.371223   11.354673
H   11.176425   72.837929   46.056736
H   57.550076   64.484390   93.839417
