100
TIME:    4.202, STEP:  4202
H   33.157623   36.676453   95.298965
H   84.426826   32.563995   43.055573
H   51.983269   76.212883   74.019264
H   82.181900   59.528008    9.836499
H   57.534119    9.566333   51.770737
H   62.865170   96.655754   94.883934
H   32.743893   45.077404   19.054880
H   89.617378   52.127605   22.379925
H   50.334755   82.288162   35.585857
H   60.010765   76.717857   72.237061
H    9.395218   35.318958   34.991779
H   95.460564   34.315025   93.826546
H   75.928848    7.486526    7.490305
H   47.022270   92.124123   77.014572
H   31.614174   94.688110   48.786808
H   32.571899   44.206841   84.238220
H   86.207222   59.899052   55.912987
H   90.930626   90.357262   53.865627
H   10.715927   54.634041   84.739960
H   79.308037   16.582003    2.424343
H   14.924072   37.895214   43.193443
H   65.230179   49.662201   61.439163
H   29.641273   60.447624   12.125491
H   28.630196   87.078064   94.995407
H   79.296783   52.920700   67.572548
H   27.391233    2.431814   95.281776
H   99.735283   67.806839   83.343300
H   77.988861   52.574860    5.665888
H    2.538913   30.329990   58.541237
H   62.116470   86.839958   17.435520
H   81.430977   98.857521   76.930077
H   31.073927   36.414536   10.263832
H   66.341774   61.043907   76.346298
H   55.646210   88.634583   94.728325
H   76.320602   41.281212   80.600540
H   37.909992   14.547895    6.217889
H   82.825241   50.649887   39.566395
H   90.316109   82.053261   18.965481
H   67.706726   89.864006   37.106895
H   67.411125   18.805859   68.639954
H   48.074509    0.366554   41.342999
H   53.969315    0.444884    0.215429
H   47.435123   88.698090    4.989228
H   11.033113   83.191803   91.584106
H   92.163353   66.099731   15.687160
H   23.876110   43.063526    0.229396
H   74.562790   53.357140   65.802727
H   56.463825   38.649200   28.573845
H   87.859360   84.440033   76.855682
H   14.006083   94.691139   89.771339
H   43.224033   63.967537   97.722031
H    9.342272   73.825714   98.207397
H   96.034676   46.373352   58.824947
H   79.383080   38.646477   17.239033
H    6.224838   26.841372   36.086781
H   98.823868    8.113729   49.580811
H   62.638851   68.299736   55.632637
H   13.166081   80.060448    5.320646
H   21.679777   16.313404   88.893379
H   81.729889   50.768551   44.095711
H   24.766226   83.159325   86.774940
H   49.777428   88.830460    5.225807
H   59.335300   20.546165   45.326714
H   31.582888   64.653259   13.054203
H   99.106071   25.236862   86.882774
H   43.209541   33.378853   94.638840
H   50.434402   93.637146   69.934738
H   90.104759   57.854263   67.082497
H   66.331009   47.857407   96.689636
H   15.519266   59.492477   92.884918
H   88.599388    9.495510   11.741440
H   27.493328   12.068957   64.273857
H   33.013779   10.459240   54.011177
H   37.708309   83.468987   53.485252
H   64.764778   34.629681   19.938200
H   24.994928   76.882286   13.188644
H   48.469688   62.346088   65.363472
H   29.397930   75.962837   46.501404
H   63.012009   41.176128   64.569145
H   93.451080   80.104515   58.915154
H   93.100998   72.753281   31.132055
H   56.607010   71.669815   35.409302
H   83.657478   77.397156   30.119762
H   39.240967   71.733223   79.628860
H   47.727127   86.047096   40.415573
H   54.585194   63.403389   33.582962
H   47.796806   97.833282   23.911222
H   23.593470   68.871986   52.043877
H   42.887802   60.211449   93.823860
H   94.824997   36.394371   74.427277
H   95.985718    0.328275   22.200357
H   89.201874   11.513161   13.593958
H   54.809822   53.598999   43.951641
H   53.367733   68.116440   10.138315
H   83.939949   73.340630   12.644752
H   40.989578   29.798317   50.410240
H   29.067066    8.824744   95.527786
H   22.290152   52.015198   88.796852
H    8.539574   54.963467   93.074821
H    0.214465   70.801094   92.947891
