100
TIME:    2.708, STEP:  2708
H   34.190826   73.683952   96.666763
H   25.942360   51.569130   48.819782
H   26.302862   68.728439   91.549873
H   81.931137   21.080858   91.728210
H   70.915741   89.815659   92.280350
H   86.027107   98.274315   46.928486
H   11.044703   44.195328    2.221998
H    7.042839   22.878641   59.555332
H   87.060127   25.930344   29.627682
H    0.839411   55.266228   13.731112
H   48.363464   75.204849   78.900787
H   52.485397   59.428696    0.171186
H   71.005424   97.869446   55.975159
H   20.996727   96.729042   63.321323
H   13.439560   28.137526   20.600752
H   92.641022   74.877472    8.253561
H    6.345863   61.082458   19.908274
H   59.013565   63.010597    5.662430
H   87.443657   91.956345    6.031552
H   19.561340   48.306286    0.705902
H    3.580130   86.627289   83.742798
H   21.998947   47.678894   88.667084
H   49.588326   72.598228   54.871567
H   67.438965   69.159912    5.953372
H   32.729485   71.403442   56.541702
H   34.242085   46.918667   35.350883
H   28.564590   29.908194   53.703724
H    4.049246   82.840004   56.285625
H   70.053543   94.783211   29.162973
H    4.830686   23.817307   98.667290
H   22.631353   64.886139   95.130608
H   36.741859   77.691612   48.570930
H   61.106586   70.352180   41.754982
H   92.520164   25.550613   57.667068
H   13.457593   54.216125   89.627190
H    8.004193   97.211845   11.331025
H   39.531464    5.362314   21.844969
H   52.063293    9.389950   13.538176
H   30.767181   22.413668   81.887100
H    8.130461   58.670135   51.094608
H   50.178204   49.100315    6.145145
H   88.241539   33.394730   30.024775
H   34.566425   79.739014   97.075645
H    6.435472   58.158440   45.507629
H   21.757013   25.047710   87.841530
H   43.150661   14.567738   94.165138
H   62.889835   72.107819   51.453682
H   56.384037   23.264711   36.133598
H   44.186188    8.173626   36.450706
H   82.678429   71.962898   94.264191
H   43.338017    8.203367   81.969559
H   36.735737   12.456650   96.285851
H   65.054054   37.710632   45.593521
H   13.983761   63.027473   51.312653
H   25.176239   95.902557   23.383863
H   96.954544    9.685972    0.440096
H   67.925911   11.408853   13.540882
H   24.413177   21.150455   43.804520
H    3.851897   53.188610    3.588182
H   80.318375   35.934101   86.588631
H   30.523844   52.636211    3.259595
H    2.802090    2.736952   72.827332
H   57.915707   22.488092   47.778976
H   28.992483   56.525345   53.620808
H   39.807384   44.560825   47.752296
H   34.988380    7.650161    6.303242
H   70.300545   41.984837   97.803787
H   93.305550   72.410461   95.660660
H   91.867912   55.206718   90.391121
H   85.248352   84.347725   96.030853
H   36.042061   11.147107   29.665291
H   50.679642   61.651855   54.889648
H   30.425474   84.357658   92.312492
H   70.597221   78.012527   42.264061
H   92.735497   32.498196    6.682370
H   89.675926   81.130608   13.715935
H   12.823450   91.835342   38.942173
H   59.207088   73.652092   63.994427
H   91.371704   45.564480   47.893799
H   66.719917   61.472088   87.624649
H   63.875668   57.297161   41.839161
H   44.508621   61.912857   60.336281
H   89.135391   52.457642   87.823578
H   36.456593   43.888641   16.083893
H   20.472271   79.497833   85.242271
H   88.965637    8.522938   29.835079
H   48.015923    6.459274   52.671234
H   99.548615   88.485504   67.582405
H   11.881065   43.394676    6.044917
H   26.914639   97.859207   21.022770
H   34.845154   19.656418   90.649734
H   78.655655   99.164360   85.122673
H   59.034428    8.775095   28.413864
H    8.965712   77.493706    9.405591
H    9.770275    7.162767   78.314079
H   17.591324   88.795784   27.577423
H   47.653824   23.086910   81.449883
H   16.807562   39.294678   12.705997
H   79.710655   48.523418   18.214211
H    7.417252    9.146009   36.866852
