100
TIME:    7.343, STEP:  7343
H   20.745096   48.632454   92.423294
H   97.681625    2.769161   41.105030
H    5.990300    2.189279   37.145290
H   82.709106   30.119667   37.667843
H   29.399359   61.331173   66.606369
H   14.146731   93.252876    5.947681
H   68.122009   57.173313   64.685318
H   42.740974   23.864979   33.984009
H   73.122917   80.293823   37.871120
H   74.196236   21.819597   95.225899
H   17.227051   61.704105   32.434883
H   75.580231   91.757431   70.246361
H   75.510948   17.523647   95.379707
H   91.500130   82.442696   16.045155
H   69.794075   14.119865   97.778595
H    6.276698   69.483337   23.507910
H   33.626808   67.651962   41.850613
H   58.094418   37.528519   44.979813
H   59.631519   86.400879   50.218533
H   94.685562   49.874500   16.278147
H   28.532684   25.198349   57.939152
H   66.360901   53.831924   93.954025
H   87.702568   34.902077   22.258650
H   36.787231   24.671846   61.719795
H   66.956490    3.822578   90.769630
H   12.984447    9.630558   99.873192
H   28.883467   37.237045   45.665913
H   12.961053   99.186134    9.492135
H   70.837257   15.306555   10.064943
H   82.556732    9.100443   67.136040
H    5.047655   80.516342   28.424217
H   29.398647   49.630390   19.485741
H   87.588020   31.233019   59.312386
H   88.360619    0.780667   62.402267
H   98.208519    3.701903   71.806732
H   10.952293   60.564133   96.340553
H   84.088058   35.619751   87.065094
H   60.490784   24.571323   40.616074
H   35.122066   21.424879   32.720673
H   71.564201   24.755991   15.766068
H   33.408997    8.140698   15.342428
H   81.385841   70.398727   54.832111
H   74.481110    7.536375   31.866314
H   10.469091   35.894493   98.695549
H   19.705299   42.174160   84.470161
H   83.339958    2.972846   12.992998
H   99.101852   24.175728   95.949348
H   56.635799   71.000504   22.920742
H   79.672676   24.302952   51.559982
H   79.907471   42.498592   70.110634
H   42.997387   60.724335   30.831921
H   61.998440   82.363098   92.014404
H   61.189938   64.585938   76.399544
H    6.647491   87.395386   55.842361
H   56.134476    2.109794   62.806561
H    2.741457    4.809600   42.653748
H   61.764751   77.667168   54.367882
H   79.280930   83.431450   24.416830
H   69.401909   49.035358   47.763359
H   74.455788   92.195023   54.758202
H   22.902781   37.088173   41.877518
H   38.300514   59.594467   63.108566
H   72.577751    6.209563   29.938904
H   47.270840   81.763504   27.776699
H   23.778309   74.371796   79.390419
H   50.255280   77.231102   80.359314
H   98.425385    2.230092   21.582472
H   73.134468   37.491936   17.240463
H   22.875694   22.165176   99.691498
H   79.157280   17.465151   86.269211
H   88.858437   95.784042   74.066933
H   68.588387    7.783050   94.285591
H   28.214254   55.096630   73.476379
H   68.557472   84.680725   66.857452
H   16.191057   39.127361   58.052876
H   99.247765   78.190941    1.839316
H   33.684284   90.244942   20.970366
H   76.967819   70.580589   19.965433
H   13.637698   31.950016   99.604408
H   39.416946    9.011216   88.315254
H   54.566246    5.249063   18.863968
H   92.309700   92.091125   72.688164
H   82.336555   29.918982   29.253319
H   55.335239   40.515865   92.747978
H   94.786621   89.572655   35.930794
H   82.292221   78.775833   51.703461
H   57.577152   69.456551   73.685905
H   74.124657   17.479349   19.442421
H    8.070802   85.326057   68.134529
H   17.118650    7.163578   86.711349
H   24.528553   69.931206   88.532516
H   21.606539   47.742889   73.437630
H   56.153919   47.846622   86.850044
H   56.938217   58.664146   21.925974
H   29.637165   91.987991   84.821167
H    0.423252    5.765369   88.173271
H   79.749687   89.079575   14.886062
H   24.103632   49.790195   31.471579
H   58.909447   68.511055   29.984089
H   95.313911   90.201004   90.365585
