200
TIME:    0.297, STEP:   297
H   11.222670   62.285824   16.314241
H   28.472328   33.710300   92.211151
H   16.942980   71.633034   48.155754
H   19.763895   77.639992   43.009159
H   14.604959   85.173904   52.838978
H   87.764282   51.267925   63.862133
H    4.185050   55.263687   50.754642
H    4.165965   91.347778   23.049072
H   89.743317   86.651695   46.328903
H    8.854687   74.100456   93.824150
H   14.180459   95.811836   94.762924
H   31.013504   43.544254   15.458237
H   12.573169   88.899590   58.955528
H    1.709412   53.447422   45.012478
H   16.869869   72.383377   42.838345
H   27.638947   23.617821   53.093395
H   86.888855   10.388090   12.664610
H   35.208630   85.907188   42.505585
H   66.921913   27.638323   43.322926
H   90.237595   78.921898   35.261120
H   58.769135   79.603645   23.229046
H   88.760063   50.993095   68.378136
H   93.298325   62.127022   47.768524
H    9.815555   88.578857   91.407349
H    5.723974   14.996469   43.376438
H   18.613909   64.865807    5.073973
H   99.999474   59.940479   51.373657
H   95.818390   72.480804    0.881253
H   13.469323   54.797188   38.004597
H   90.473656   22.291302   96.654175
H   13.287074   53.830631   16.264502
H   30.889526   64.842270   95.006470
H   25.746048   10.212050   73.875389
H   94.540062   63.640106   39.286598
H   45.253071   87.445724   33.785519
H   31.199337   48.622326   80.130096
H   87.900467   73.198738   86.382851
H   30.095465   46.229759   12.604612
H   50.960670   44.359528   45.698643
H   89.536110   39.454090   61.469818
H   80.521271    2.561149    3.416234
H   16.176439   41.911633   38.140995
H   75.675552   86.472519   52.444820
H   37.154282   66.002312   20.786922
H   30.724487   78.034218   46.420876
H   40.257664   12.355083   43.307793
H   81.048294   23.419628   97.428841
H   88.728134   65.549736   45.598526
H   89.284752   26.589092   61.207428
H   60.077614   18.058733    3.300906
H   76.852295   69.774658   25.609772
H   18.959173   36.679058   64.767204
H   53.713833   92.791016    8.673930
H   21.558260   83.386566   82.547256
H   74.786209   75.117271   88.929916
H    4.574955   70.945847   80.514709
H    5.267813   16.961159   49.043156
H   68.031418   59.904461    4.274661
H   26.978405   75.578568    8.505095
H   41.784966   95.669106   65.940529
H   50.234913   14.264320   40.571148
H   90.960823   16.559912   49.503014
H   73.017647   26.387264   82.961899
H   25.507093   65.233658    4.940140
H   72.264656   76.928818   20.260426
H   36.503788   18.775620   33.887863
H   84.045998   21.959665   87.012764
H   97.022224   91.579521   88.400055
H   18.549984    6.623521   61.258347
H   44.908852   42.623459   50.979549
H   58.440159   77.577995   74.806015
H   30.538527   22.323578   44.365829
H   79.302872   26.648525   97.587090
H    9.722336    7.711809   62.231895
H   79.839096    1.794277   64.932579
H   54.754501   17.064217   62.505001
H   95.186661   32.072170   71.339317
H   24.444029    7.007877   46.018425
H   11.963913   32.232979   33.676014
H   67.417213   90.349052   91.558441
H   45.787312   29.138691    0.287545
H   29.142756   67.565247   86.095116
H   10.777328   14.291543   88.611969
H   22.815300   63.723473   95.709320
H   36.878437   99.926590   56.166851
H   26.273100   83.779984   26.596264
H   38.409893    2.902884    1.901997
H   74.857475   16.422913   13.592105
H   67.431343   72.192436   77.373764
H   23.158634   88.602051   54.238415
H   38.853397   35.384857   80.500954
H   83.658386   89.035568   99.611588
H   49.967445   16.219244   94.106438
H   57.471886   92.385818   70.669785
H   26.569231   56.155167   70.313766
H   66.911568   28.983700   26.381653
H   80.078804   12.307665    0.784085
H    5.327728   29.324442   49.133251
H   35.726326   69.207039   53.083248
H   68.195511   98.853668   27.264322
H   12.409346   82.002380   71.623848
H   92.691887   77.518929   65.550186
H   24.360952   35.086899   31.299425
H   24.614857   68.044724   92.425896
H   25.263180   26.723660   26.935539
H   89.679672   23.982178   41.222157
H   68.358444   30.804541   55.993958
H   64.415474   36.462887   16.537548
H   74.245132   39.370152    1.888829
H    6.197776   27.265654    5.816237
H   47.944485   95.571457    0.835954
H   88.282707   64.778748   91.160431
H   56.104046   80.936104   92.695541
H   63.031090   18.168497   73.484100
H   61.948112   84.342117   24.774080
H   11.712290    4.129782   81.505806
H   30.231396    9.245327   84.844589
H   40.481922   29.802078   32.839134
H   21.027042   59.853634   80.722534
H   72.286865   47.812496   51.469082
H   41.149483   22.138210   85.652039
H   15.829659   26.129742   49.864826
H   33.610603   19.418575   25.720055
H    3.237500   65.267517   15.369113
H   75.210793    7.540807   90.927948
H   49.810619   63.912109   24.430824
H   93.969810   49.456070   68.853424
H   74.181885   88.017021   35.483982
H   93.169174   50.420403   83.591293
H   70.507957   23.879179   67.472687
H   50.909882   83.150482    5.589634
H   79.512146   86.616714   10.671185
H   92.251625   85.367935   97.799156
H   98.125618   14.464410   50.408764
H    7.241930    0.339486   53.797630
H   60.839928    1.553696   82.841858
H   68.987083   86.709770   58.176224
H   91.704536   62.441223   82.297745
H   47.803116   45.130760   71.536606
H   43.478821    6.356140   93.873672
H   53.439564   61.392437   16.751175
H   54.614258   42.742718   47.575653
H   53.173153   57.810127   97.461662
H   55.101219   24.464319   79.068977
H   42.981205   67.876671   50.932423
H   48.028622   62.957897   27.116238
H   46.079369   96.528175   46.873764
H   41.096024   71.296936   68.497948
H   66.709076   62.412495   97.377815
H   11.278945   89.297104   87.863869
H   74.211098   62.277981   50.913887
H   36.186794    5.532544   46.366077
H   78.823708   29.707264    1.463533
H   11.416680    2.451095   74.543961
H   15.872803   55.384361   61.784519
H   65.194199   43.670238   55.814594
H   59.907909   62.592865   81.430710
H   46.856457   35.745354   11.059526
H    9.773040    1.519558    0.491144
H   63.040627   54.618103   80.428497
H   54.515850   82.093674   81.900345
H   40.927883   22.760912   35.050175
H   67.672920   32.084850   37.208351
H   13.366920   21.854149   68.760010
H   58.408417   24.022470   10.384610
H   12.895753   62.625648   61.990234
H   73.918320   96.645027   52.825958
H   23.682007   33.525944   50.369740
H   94.847473   27.984844   36.722340
H   29.074162   10.029568   89.761475
H   78.276062    6.311681   35.971291
H   44.193825   63.330067   57.633152
H   38.774265   75.005020   88.820206
H   70.523308   73.177902   75.564255
H   68.788605   94.607758   96.551285
H    2.667221   47.968742   23.341431
H   34.832184   54.701748   89.292389
H    2.235178    9.255219   65.609055
H   74.143867   20.054499   68.468178
H   83.589081   55.066536   87.189087
H   80.377159   87.232025   40.394016
H   20.377369   30.175625   71.697044
H   63.011024   90.106613    7.198178
H   52.722054   25.325905   79.287254
H   86.260078   85.862114   78.162003
H    0.453716   36.704742   84.239479
H   33.336761    3.548197    0.528078
H   87.682640   69.638985   27.520994
H    4.967699   61.427589   67.194855
H   50.650097   57.963245   66.423172
H   50.543243   29.138508   78.894417
H   47.185642   86.478226   23.898363
H    5.366584   18.880075   59.111927
H   34.107700   65.805962   34.462006
H   82.938538   51.709358   21.629831
H   75.467300   10.523313   28.785444
H    9.840165   87.113655    5.390668
H   27.252941   96.273331   45.359196
H   11.153202   11.771385   75.467827
H    7.413234   33.061676   96.956886
