100
TIME:    0.728, STEP:   728
H   68.090736   55.259987   98.479507
H   81.019569   44.216541   23.922178
H   92.272491   26.278942   14.791954
H   81.598801    2.655600    0.258320
H   88.650421   31.109932   45.965721
H   16.727425    0.421315   50.842304
H   14.816462   10.494913   47.383320
H   62.666931   51.582500   41.351822
H   35.732368   16.299301   54.262985
H   54.945473   26.837730   36.198158
H   32.538239   95.535355   69.624046
H   28.054485   60.181557   41.108788
H   96.954803   17.662582   52.771118
H   19.035358    2.832676   12.640598
H   89.356544    4.996631   15.777657
H   72.252747   48.061481   72.609848
H   65.536430   30.140793   39.637459
H   16.701096   59.298035   74.307907
H   56.600418    8.892428    1.717850
H   72.943092   90.268555   65.853661
H   21.075989   83.742706   37.484604
H   32.153309   45.060814   57.268566
H   76.024178   88.701439   11.520594
H   51.402451   45.412968   53.007980
H    3.547108   28.438633   41.934006
H   43.320911    5.918101   20.938047
H   99.302124   12.214383   14.412497
H   71.113701   90.419769   90.837296
H   27.000870   15.141990   22.759079
H   28.907515   72.821823   41.262142
H   44.739201   87.326241   51.803947
H   11.723463   32.398155   31.869453
H   21.636795   15.218382   63.380943
H    8.861701    7.005864   41.081200
H   62.676247    3.888869   69.057495
H   35.852203   41.673656   18.139387
H   49.623295   77.874855   65.828865
H   33.900955   45.629726   73.813606
H   17.991688   64.967339   72.352097
H   94.624153   44.030514   95.311394
H   85.490860   81.160194   59.494434
H   66.192680   44.531578   37.002705
H   17.511526   67.865540   54.056572
H   32.871078   24.971716   51.912605
H   93.507011    3.169018   18.404451
H   68.653709   76.889702   86.173149
H   43.767078   65.013962   33.843941
H   56.278294    2.878840   13.622405
H   86.310539   72.155563   15.433366
H   41.158276   41.830021   32.747444
H   43.489079   99.359428   61.092793
H   40.511742   96.185730   26.269920
H   23.980684   26.229919   60.590225
H   59.831081   95.324989   63.941120
H   82.803848   22.324842    6.583651
H   94.477127   11.766851   67.843964
H   42.403206   68.540810   25.226418
H   71.850281    8.136559   94.803055
H   47.692078   69.528259   55.595310
H   10.978934   83.744324   42.903526
H    5.623117   44.715065   57.634079
H   73.072998   21.169235   62.417122
H   23.612373   57.509529   83.614357
H   93.029549   45.754623    7.373663
H   61.219673    2.699437   63.359421
H   56.623116    6.082057   89.230904
H   29.160227   73.529938    2.209485
H   30.077980   59.172348    1.005210
H   93.184898   97.476898   14.572779
H   45.133385   84.759911    0.199890
H   98.914070   45.869785   53.416203
H   13.940453   27.364754    9.921926
H   59.524948   82.296394   43.082081
H   14.167258    3.309763   59.941399
H   97.272385   29.679556   56.585377
H   42.870098   54.231529   46.944027
H   33.052357   63.447380    3.915831
H   66.183090    3.118133   54.646061
H   96.446373   51.369968   25.805916
H   63.823044   69.307259   58.203308
H   25.128262   36.813152   23.499287
H   95.945229   48.981949   25.903233
H   63.857708   19.408152   99.238373
H    0.248646   74.457497   96.935341
H   16.881765    3.346161   77.181068
H   34.537060   35.794903   92.337669
H   15.776205   50.421394   58.256954
H   67.674530   47.008461   88.172981
H   70.790718   53.638054   22.244225
H    1.971225   79.329391   50.238049
H   53.815311   12.742105   48.835766
H   32.151585   50.258415   47.394035
H   31.993156   49.443268   75.234795
H   17.591318   57.392441   75.903160
H   44.005833   84.519775   32.814201
H   54.051407   66.983147   29.846962
H    4.817467    9.458787   95.320862
H    9.538123   22.436157   44.387909
H   74.031853   39.988415   84.070381
H   84.452713   60.005703   27.569387
