100
TIME:    1.563, STEP:  1563
H   11.623257   78.686295   97.715042
H   57.792564   89.488411   76.593834
H    6.621351   86.352867    4.987710
H   81.738953   68.254417   54.490978
H   81.171402   98.038872   23.324806
H    3.779040   99.514778   33.534634
H   71.052299   66.880119   12.681496
H   97.037575   23.821568   64.685585
H   15.206474   36.017395    1.701027
H   32.126183   38.825722   68.897209
H   54.868576   29.132999   89.193375
H   96.183456    2.035964   81.673241
H   43.839622   67.143684   69.778740
H   77.691139    0.258310   76.185555
H   99.511192   30.413387   75.641373
H   38.679977   75.025383    3.298563
H   98.404617   85.360672   15.662843
H   34.544991   18.692184   45.360153
H   69.605446   43.924049   45.706554
H   50.406944   72.620712   22.748911
H   71.526001    0.615037   14.822163
H   12.218556   46.162918   86.168434
H   64.875725   81.910439   87.630280
H   73.821877   55.427464   90.991989
H   73.682243   62.213348   48.094322
H   39.492214   81.035767   42.672394
H   27.299191   77.506119   30.982283
H    0.661126   29.395260   18.436441
H   45.156921   90.899811   83.288872
H   60.925564   52.155777    7.642913
H   77.585732   62.206894   85.730133
H   64.445953    9.329953   54.569328
H   80.453690   54.125557   38.604340
H   44.142097   30.483009    5.905006
H   41.921013   40.769417   19.904701
H    8.451280    7.265202   15.266438
H   29.711380   47.296242   31.623480
H   99.390877   30.346790   32.737934
H   80.454361   47.142555   92.320480
H   15.976652   65.861320   61.008816
H   28.427498    9.813601   79.168137
H   91.147644   82.006432   76.232513
H   24.703871   72.872787   14.370801
H   79.551414   38.966202   33.556133
H   21.077217   70.220993   89.859940
H   57.922657   92.728615   89.517769
H   52.583912   10.054915   40.978951
H   56.322887   11.475943   65.287514
H   10.719884    3.002504   82.125992
H   58.670902   54.539257   74.345787
H   43.425373   18.746035   69.896881
H   81.092110   18.703989   71.454788
H   41.302193   31.071533   12.092579
H   40.496479   81.704765    0.788285
H   16.329018   95.525604   13.669289
H   95.521896   10.889309   39.418594
H   95.339828   44.447411    4.641701
H    9.672951   29.281796   73.296097
H   13.547905    4.808592   91.490952
H   55.875713   47.925938   19.154137
H   58.296062    5.886182   92.532372
H   43.437225   13.396637   24.633423
H   80.250580    0.567948   26.330421
H   50.368355   50.296822   84.705193
H   94.359779   36.009739   41.120396
H    5.327782   64.571693   38.602108
H   62.166214    2.400905   42.524548
H   72.398628    6.926327   40.923038
H   34.802132   37.479111   62.205322
H   62.047180   26.757029   98.441895
H   72.399864   89.053917   43.401707
H   45.090328   99.651962   71.058159
H    5.080743   40.993336   21.670681
H   95.790855   50.470581   10.314857
H   37.530334   30.867662   19.884014
H   62.612415    7.745832   90.759697
H    8.864870   91.076645   18.690050
H    5.412913   48.520554    0.757435
H   36.471779   48.923679   35.117531
H   22.873184   23.829256   86.267403
H   41.468708   45.451611   73.405586
H   58.597507   54.435135   56.080521
H   16.693623   33.344025   78.767944
H   57.691509   45.909527   20.667183
H   76.224136   51.118530   96.237228
H   15.317127   66.468559   50.322777
H   71.543953   89.710083   98.072861
H   81.116379   80.157120   79.496300
H   88.118599    7.147220   15.411953
H   28.147949   44.970207   80.090416
H   87.986916   57.827808   66.469437
H   93.933128   13.058588   63.301285
H   85.569435   74.463058   39.833298
H   98.297035    8.039704   32.204094
H   29.569641    9.724960   52.002281
H   23.019012   34.009209   86.717819
H   38.538437   57.377804   47.299698
H   12.603948   29.545685   31.028645
H   34.254173   43.587772   14.126347
H   36.308975   38.556080   47.146797
