100
TIME:    2.943, STEP:  2943
H   18.299267   52.133202   96.451614
H   19.405418   64.311279   63.643543
H   30.342283   85.635559   88.792381
H   81.970581   11.398260   78.847961
H   68.810867    8.651929   85.908356
H   82.383919   98.019722   70.201744
H   98.728493   60.064354   20.599373
H   88.572296   43.208424   37.977688
H   81.283379    3.335872   14.835260
H   94.417336   58.640480   22.934107
H   26.504333   84.660645   56.264149
H   43.515480   71.208099   83.443367
H   56.057114   83.651688   32.618950
H    9.361012   96.004707   81.203850
H   16.298351    7.146878    9.304271
H   83.192398   54.323578   88.746437
H   87.448524   76.626633   41.301250
H   64.035484   51.582603   97.514832
H   91.104774    1.814046   18.411615
H   13.230583   43.316624   16.705713
H   89.634933   63.233368   77.363632
H   44.528625   47.990860   68.654648
H   46.450737   70.686989   48.148163
H   45.604935   71.978363   88.500694
H   24.325153   52.765457   58.275444
H   33.164547   39.917362   13.324306
H    8.300251   20.139536   58.367077
H   84.219963   93.809013   64.054283
H   75.163330   16.104109   18.055014
H   13.841392   18.001114   17.348633
H   31.880068   85.959976   76.538155
H   51.579964   71.197701   26.815788
H   77.659027   53.158195   62.925636
H    2.449406    4.014414   47.766632
H    7.615837   36.451996    3.937698
H   28.437065   15.672457   10.523320
H   62.070107   96.755844   40.362118
H   42.351112    5.088916   30.120846
H   20.847023   17.294020   59.113586
H   85.995575   36.669365   69.584328
H   34.118069   57.163021   11.681851
H   67.121086   43.942406   41.065338
H   36.590618   81.148239   14.049886
H   91.429123   62.097458   68.484093
H    1.372551   15.776573    7.951133
H   40.118855   19.050007   95.118965
H   64.726852   84.887665   53.710953
H   56.396587   25.684240   50.674080
H   51.054817   88.710503   27.076063
H   87.605339   75.537956   77.826813
H   43.320087   85.515610   84.447357
H   48.156559   90.650711   80.859673
H   69.927177   39.073242   31.944118
H    8.542286   59.192444   61.682831
H    6.466578   16.500900   25.379721
H   97.248581    9.438999   92.440140
H   82.824974    4.627627   35.891319
H    6.914632   98.957230   37.751663
H   22.385185   63.117733   85.547768
H   64.809723   53.997646   79.904671
H   45.347694   41.708439   84.936325
H   94.461784    0.549162   62.195084
H   73.861488    6.457760   31.660141
H   45.130280   57.803688   47.239849
H   49.135883   25.791172   69.637856
H   20.551888   95.967690   20.197693
H   51.446327   50.108501    9.149909
H   77.072563   85.850098    6.895019
H    3.579633   38.321114   75.653419
H   90.010315   96.166573   95.536011
H   28.579567   95.157616   26.845943
H   31.303656   53.852707   72.095337
H   15.102388   72.732445   86.288322
H   65.426476   63.142044   28.297310
H    4.066272   32.833469   24.497581
H   95.230354   96.191032   97.903564
H   34.160038   71.467911   43.098133
H   70.247818   58.286205   76.971497
H    2.641581   44.874210   50.516823
H   55.195107   48.672520   67.379135
H   68.472733   59.728344   55.884800
H   62.141869   63.447586   40.686012
H    4.002565   56.380524   10.206053
H   52.623241   63.997894   94.619720
H    9.029311   64.799576   62.461586
H   83.558228   17.154892   46.154125
H   63.711037   89.372841   63.876907
H    3.330862   69.670731   65.136879
H   16.758293   30.310152    4.122248
H    6.137314   88.191849   29.423439
H   44.462311   32.345699   95.612503
H   96.043274   16.836580   89.601357
H   74.106644   15.820917   46.591148
H   31.679920   91.747322   25.250412
H    5.706777   86.113495   83.714317
H   37.001343   79.515694   15.439417
H   29.000557   36.573162   67.934944
H   17.669950   41.295563    8.945822
H   68.515739   49.536411   98.529655
H   22.012415    3.112869   14.230729
