100
TIME:    2.483, STEP:  2483
H   49.406891   94.317650   96.872757
H   32.201134   39.369156   34.626820
H   22.435331   52.540771   94.190025
H   81.893372   30.351431    4.060753
H   72.931046   71.780914   98.381195
H   89.515266   98.518074   24.645407
H   22.836800   29.001579   84.626686
H   24.727394    3.413729   80.213432
H   92.591057   47.563110   43.791317
H    6.987463   52.035561    4.919809
H   69.292419   66.151428    0.574730
H   61.073616   48.150543   16.186419
H   85.318550   11.482531   78.338585
H   32.137550   97.422554   46.198101
H   10.702419   48.235474   31.416277
H    1.687708   94.556732   26.931177
H   24.437943   46.201759   99.424728
H   54.205330   73.952293   13.463581
H   83.938332   82.518402   94.177414
H   25.622704   53.083622   85.386848
H   16.931885    9.026302   89.850510
H    0.427979   47.380203    7.827853
H   52.592400   74.428139   61.308868
H   88.343887   66.461395   22.664375
H   40.776970   89.249359   54.881737
H   35.273769   53.622044   56.439484
H   47.967323   39.261829   49.238811
H   23.033865   72.337761   48.847538
H   65.161194   74.369240   39.798882
H   96.203270   29.386002   80.780174
H   13.777436   44.710064   12.932699
H   22.535164   83.909187   69.400322
H   45.257092   86.814507   21.485205
H   83.013557   46.170578   67.146210
H   19.050983   71.224335   75.925179
H   88.441330   79.537590   12.104360
H   17.951355   13.602919    4.116069
H   61.362190   13.508106   97.660698
H   40.265205   27.315458    3.691406
H   29.322916   79.733421   33.391171
H   65.554085   41.380703    0.843117
H    8.463318   23.295891   19.454725
H   32.628368   78.389755   80.822746
H   20.802694   54.387039   23.508894
H   41.273647   33.924320   68.587990
H   46.053455   10.276203   93.251900
H   61.130306   59.871796   49.292465
H   56.372021   20.948141   22.211861
H   37.609840   26.807468   45.426880
H   77.961174   68.539970   10.001095
H   43.355183   29.926256   79.597198
H   25.801394   33.335018   11.056789
H   60.386971   36.406006   58.662102
H   19.193684   66.698051   41.383759
H   43.089104   76.178665   21.474989
H   96.673019    9.922436    8.099625
H   53.662098   17.901390   92.141319
H   41.167328   42.399139   49.599808
H   86.105888   43.682003   20.861609
H   95.167084   18.639219   92.988167
H   16.330023   63.098972   20.801983
H   10.786919    4.831650   83.006851
H   42.653294   37.831718   63.214767
H   13.542101   55.301399   59.730236
H   30.875950   62.532055   26.797804
H   48.810555   18.835609   92.999687
H   88.352455   34.206860   86.941055
H    8.848015   59.542725   84.904358
H   80.654991   71.373787    4.502120
H   80.689026   73.031807   96.504639
H   43.186607   26.456591   32.364780
H   69.231567   69.119125   38.415306
H   45.095749   95.488182   98.080315
H   75.547935   92.250122   55.636482
H   81.886497   32.177189   89.625839
H   84.357857   66.711052   28.855545
H   92.395142   11.336588   34.963062
H   48.636181   88.363472   51.567860
H   80.581070   46.225376   45.382393
H   77.754311   73.725632    7.008557
H   59.472553   54.969433   28.391438
H   27.625725   60.443436   79.150368
H   74.901230   48.701691   66.393372
H   20.977886   24.635103   36.635193
H   31.428558   93.570633    7.053445
H   94.142944    0.258261   14.210412
H   32.988686   22.818604   41.942398
H   95.926559    6.499510   69.923866
H    7.211393   55.922523    7.885771
H   46.808254    7.116508   12.979737
H   25.637238    7.507093   85.898148
H   62.007732   82.245415   80.834572
H   44.597706    2.033492   11.006666
H   87.219063   63.846607   94.234795
H   13.660980   27.317520   73.143639
H   99.007172   97.680977   39.198898
H   65.513474   10.174735   94.389717
H   15.981862   37.378937   16.306202
H   90.429192   47.553532   37.060913
H   93.443985   14.925419   58.537384
