200
TIME:    0.744, STEP:   744
H   24.957960   60.802326   23.957664
H   32.456360   40.235985   10.357898
H    7.574299   91.198151   70.172905
H   34.831467   82.864632   31.320221
H    9.859046   96.503052   46.412193
H   73.222595   39.135643   50.631721
H   10.661284   54.946526   59.406673
H   14.182984   10.649383    7.182694
H    7.896091   79.950378   35.424343
H   93.119461   67.839073   76.192696
H   29.760645    5.360512    8.888542
H   32.861908   55.475327   36.756859
H   23.544231    3.734941   40.635185
H   80.582222   55.333340   66.552177
H   95.288834   75.824409   41.738510
H   14.609791    5.200283   43.450661
H    7.916383   31.323311   90.961708
H   24.594543    7.396173   34.547558
H   81.794403   11.455530   49.903175
H   91.659706   72.783287   17.933186
H   64.133598    1.917438    2.750228
H   78.808693   68.078896   51.152512
H   79.912743   58.876968   37.043007
H   19.283508   92.654213   90.005699
H   25.152878   32.974098   27.426281
H   18.243887   84.703751   90.310616
H    8.656032   68.909676   69.346146
H    6.077225   90.920509    2.057441
H   32.296101   41.210396   35.387161
H   70.274216   34.266018   81.191696
H   12.703480   72.505653   16.811008
H   22.760983   75.318832    6.011946
H   14.945503   19.830317   79.335342
H   79.746010   64.127785   47.099686
H   23.801710   68.975327   30.385004
H   16.597969   38.430527   85.255836
H    0.730136   63.550888   89.738625
H    7.985227   57.792515   92.506927
H   34.417114   28.353294   55.634666
H   85.249313   37.615917   44.008881
H   80.654274   81.679733   18.253212
H   38.425491   32.538315   24.886253
H   67.627151   76.203987   69.042946
H   36.158463   87.712532   36.773487
H   45.997620   91.672165   62.551781
H   33.967293    0.721964   48.169231
H   89.471832    1.519915    7.229047
H   77.845741   65.542915   29.529007
H    6.571843    9.626225   61.529705
H   44.081417   20.075949   84.390381
H   66.218857   64.116905    7.894958
H    1.872020   44.372784   74.377541
H   65.770470   80.008629   14.514730
H   14.905470   92.819565   89.166725
H   55.865646   65.176132   74.473488
H   98.844902   59.933228   95.151886
H    3.992134   18.652687   44.248219
H   72.915024   70.295761   96.206352
H   17.546259   84.213547   19.316166
H   31.446522   93.159096   57.677277
H   48.787224    5.543230   27.510960
H   98.994865   17.618822   52.929970
H   85.332382   35.646851   67.881378
H   36.337822   65.871391   14.920433
H   79.450241   83.592621   38.539295
H   18.968893   36.141716   41.922623
H   67.348976   12.530772   96.247963
H   94.519035   92.595802   97.249886
H   34.449707   12.664084   55.600594
H   42.335751   50.414379   50.955677
H   58.244064   85.309235   86.762665
H   17.975689   10.574304   41.236843
H   93.489883   34.376354   82.619110
H   24.285154   97.886467   75.245522
H   85.281998    9.030166   43.914658
H   66.052956    1.283178   59.584045
H   93.297333   48.712921   65.016548
H    7.887892   15.147505   30.733284
H   15.362947   52.146996   23.773245
H   60.680950   87.856094   70.359772
H   64.759026   21.583937   93.651093
H   48.798122   59.526127   72.276421
H    9.033366   19.194757   75.533318
H    8.238657   78.340187   10.277894
H   20.960678    4.653445   43.499146
H   38.866165   68.140167   17.291153
H   58.443932    3.834333    2.926799
H   71.140205   99.786041   30.451969
H   81.112381   73.283920   78.985840
H   20.919746    8.638342   49.320705
H   20.115829   39.243656   78.512726
H   80.544746   92.957458    9.364994
H   71.202499   11.177910   81.375641
H   37.427616   76.326530   82.943596
H   37.895378   50.108635   88.930809
H   48.400246   38.977699    5.364748
H   86.142387   96.846458   20.035179
H   93.039909   36.269928   53.365482
H   25.597618   64.729263   54.667351
H   75.967674    6.116784   27.373453
H   32.352932   94.361450   92.672462
H    9.313172   84.281631   63.084511
H   33.626846   18.750681   37.545559
H   46.093468   68.870026   10.177218
H   24.670633   20.849350   41.427776
H    7.376360    2.097178   20.294130
H   89.533241   36.354870   53.913651
H   61.781254   53.625420   99.252815
H   85.604973   33.727745   23.503559
H   20.557009   21.033258    8.003969
H   53.825615   91.687080    1.150452
H    6.230903   76.019226   96.252068
H   48.340408   86.123230   82.972664
H   61.516899    8.531731   61.957458
H   47.031288    2.955667    9.100825
H   93.470131   91.054024    1.671190
H   11.852981   15.539535   90.055588
H   38.214046   51.803883   23.904045
H   38.002556   76.635910   58.630772
H   84.083229   56.733944   68.144363
H   45.814827   25.108616   71.004631
H   96.542877   15.540638   63.013390
H   44.387276    0.565886   38.980755
H   96.651886   49.182518   95.794182
H   61.835442   96.473564   76.144127
H   66.187065   76.141602   15.800097
H   82.858925   51.543198   51.590286
H   64.404442   91.522850   39.259228
H   98.670052   34.240047   73.404610
H   92.173843   21.760506   75.087975
H   68.953987   67.190094   22.672024
H   62.354729   91.050156   21.212543
H   90.792000    7.115389    1.124608
H   76.207367   25.924984   55.910015
H   29.324039   92.256989   33.257156
H   48.934433    0.980013   76.256493
H   69.727127   87.848824   80.428688
H   95.517296   48.484409   75.234932
H   59.486938   51.381912   71.430885
H   43.720955   84.918358   81.453217
H   75.569260   48.247284   31.190552
H   34.036270   56.324394   57.995945
H   38.803688   66.037148   82.384552
H   34.618721    8.283722   86.476234
H   63.992306   53.051926   65.549133
H   64.406822   70.658676    5.707809
H   56.651421   94.570641   43.673161
H   28.890419   54.657890   65.933372
H   78.658905   43.749413   92.934143
H   25.528053   94.177299   71.136154
H   58.455933   69.869400   47.539356
H   55.003342   93.163689   32.358109
H   99.589264   12.993191   85.772415
H   23.232819   12.711412   63.497791
H   33.598042   67.189713   69.870903
H   78.463829   44.778599   69.567474
H   64.586899   75.998734   86.723557
H   53.211624   28.573410   21.531826
H   89.314537   99.835251   83.913521
H   58.029133   36.379608   97.582504
H   58.906662   63.933617   70.015312
H   19.940165   20.444439   31.177734
H   86.914055   12.595615   37.022488
H   29.774847   34.985661   49.636108
H   54.128441   39.189957   14.776701
H   20.597153   48.402828   59.546726
H   66.221184   89.415108   57.564625
H   24.072491   53.863503   68.853775
H    0.921475   26.531187   35.666840
H   49.473106    6.656316   84.727814
H   69.736572   11.627547   35.933777
H   28.751627   46.726830   59.005814
H   47.410950   55.797260   76.242874
H   65.019760   62.483147   85.932571
H   48.012817   91.245163   75.533363
H   16.467400   50.384071   23.772827
H   30.240162   68.665955    7.990570
H    6.196879    9.681511   71.324783
H   62.712215    9.662934   63.240376
H   62.325752   59.861473   93.494804
H   72.216217    3.250584   30.001171
H   29.393454   30.721279   88.015518
H   42.428814   89.635468   16.052139
H   62.456802   26.152950   95.731911
H   92.040604   66.474335   76.320419
H    9.811432   40.476578   86.476662
H   48.901550   95.891731   10.432592
H   66.207733   88.573189   43.162270
H   92.022377   63.420933   72.303543
H   58.778641   55.531673   72.070694
H   71.896454   14.349571   75.702339
H   43.521233   98.625854   18.204802
H   15.295417   29.514366   69.352364
H   26.298647   83.645447   43.470417
H   67.598831   31.743538   20.167648
H   76.558609   11.620163   22.661327
H   12.811423   99.302208   20.478010
H   14.262049   87.389397   32.752876
H    5.192355   13.022127   55.476418
H    2.751059   17.917271   90.746658
