100
TIME:    4.890, STEP:  4890
H   86.631996   73.583443   94.669083
H   65.425362   69.846985   86.436035
H   63.809319   25.709835   65.946266
H   82.297379   31.183205   72.126595
H   51.371765   64.712570   33.115707
H   52.193905   95.910393   63.020184
H   96.685982   91.533401   72.857376
H   35.541939   11.649650   59.211246
H   33.422401   16.139969   92.278557
H   41.208763   86.596519   99.175049
H   45.399139   63.002308   68.719131
H   69.204948   68.801109   44.853157
H   32.026016   65.882301   39.126953
H   12.957459   90.003517   29.371248
H   39.981239   33.232544   15.713993
H    4.907048   84.031693   27.128620
H   30.882515    5.407123   18.544340
H    5.637360   56.885754   30.012865
H   21.431808   83.494873   20.986788
H   60.769402    1.971346   49.266548
H   74.097191   69.403107   24.521614
H   31.189407   50.575531    2.849615
H   20.455482   54.852165   92.440842
H   64.707504   95.326874   43.899345
H   54.689362   98.357254   72.653603
H   24.254942   82.096527   30.584967
H   40.408730   39.205608   96.990761
H   19.938103   84.688385   28.409311
H   17.499779   92.751305   26.018772
H   88.498062   69.812126   72.129646
H    8.506637   60.550419   22.497704
H   74.514839   17.407822   46.572243
H   14.801958   10.706884   38.326775
H   84.715302   25.583313   65.743217
H   59.219284   89.273483   22.495438
H   97.717361   68.434410    4.053323
H   48.813278   25.453892   93.778305
H   61.877293   69.466103   67.514076
H   38.664547   74.872795   70.434998
H    2.610471   54.398468   22.768991
H    1.055387   23.971586   57.551983
H   92.135124   31.323179   32.535557
H   53.361271   92.823822   54.682907
H   67.099350   94.721313   58.853722
H   32.484730   38.956627   74.560936
H   14.999863   56.186085    3.026222
H   79.937790   90.772179   72.405998
H   56.500568   45.735382   71.143425
H    7.971786   27.460003   49.410995
H   28.435650    5.160276   41.650734
H   43.171543   97.545151    4.975285
H   42.776772    9.983553   53.043526
H   10.304635   50.362610   18.864996
H   63.447227   27.418816   47.598106
H   51.446106   87.138924   41.939442
H   99.684708    7.389917   26.159668
H    6.257505   48.447929   21.067268
H   61.935928   15.087370   87.599472
H   75.940086   45.383911   36.074928
H   36.329037    3.648860   24.527351
H   68.165588   51.163387   33.132942
H   25.359686   82.426651   74.098358
H    6.041997   73.598190   98.148468
H   78.827675   68.401062   94.374512
H   26.414209   70.288788   50.953663
H    0.945678   99.176811   35.318291
H   95.234222   17.423130    3.150775
H   42.580101   97.200943   99.972878
H    0.617706   98.422127   53.541389
H   29.458048   94.094727   91.436188
H   66.752953   62.684448    3.487689
H   70.763458   89.235229   14.644275
H   88.153839   76.426186   36.369209
H   22.560955   39.930683   12.606514
H   97.938606   35.611248   72.093109
H   41.261650   20.975451   66.893295
H   10.934896    2.713215   77.530708
H   61.721416   30.974911   84.496254
H   96.007210   39.155254   72.243217
H   59.710358   42.633991   99.643463
H    6.561710   79.870956   72.252846
H    8.227309   76.162979   77.878563
H   27.177958   88.897400   95.642212
H   86.573914   30.607283   16.791496
H   14.226535   43.013039   73.721779
H   38.748890   88.672310   81.359573
H   93.746758   47.810089   56.717621
H   34.666916   13.789549   44.889458
H   57.165146   21.904768   88.196907
H   33.996723    8.086388   99.024200
H   24.141655   37.477749   36.729656
H   40.109379   63.253983   26.702734
H   98.912117   74.246010   97.155746
H   19.864517    9.846890   56.525173
H   72.045662   11.712639   28.452465
H   97.815506    2.631463   14.874310
H   74.457237   48.307659   55.960648
H   24.814932   57.873108   77.784401
H   75.764832   57.929165   35.448441
H   42.947132   53.146610   26.670977
