100
TIME:    6.720, STEP:  6720
H   62.876053    5.764689   92.993668
H   14.886040   69.012215    1.822302
H   95.279114   57.367531   44.460331
H   82.604538   55.786652   71.817871
H   34.980621   11.394972   83.498932
H   23.809582   93.927818   44.250507
H    0.775825   15.103537   15.965906
H   91.707542   69.966492   91.185463
H   88.437447   40.192856   77.087471
H   91.212379   12.873823   70.832924
H   75.177002   36.636189   92.445183
H   99.355301   60.529484   14.592205
H   15.249619   55.217999   57.288506
H   22.346699   84.362953   68.636024
H   62.227119   69.769310   27.737972
H   31.327938   23.973366   75.222168
H   83.724617   26.446804   85.136452
H   44.771442   67.843872   66.573769
H   49.930416   60.267586   17.398289
H   11.470314   63.102413   73.861473
H   65.502396   87.219940   74.849022
H    6.633286   53.004883   47.008194
H   96.020515   39.968895   40.084122
H   94.672874   17.218966    7.987353
H   89.239082   53.231186   86.168617
H   15.912771   27.999252   58.497650
H   82.606117   63.136757   33.303066
H   65.526657   70.106590   88.900009
H   57.290886   58.782879   39.513458
H   58.667591   24.520073   17.609295
H   80.530403   24.651291   77.713997
H   90.062256   66.842194   77.160011
H   43.705082   76.815331    3.187626
H   62.037880   57.874802   88.648956
H   13.713936   50.871742   33.901634
H   56.795650   11.767797   98.298836
H   24.334778   58.434692   37.974949
H   86.242500   35.974041   96.654060
H   61.421040   34.997917   93.094711
H   30.244881   83.079590   66.751205
H   75.987381   86.762825    0.665948
H   33.889069   67.955627   23.028362
H   69.119598    3.799224   86.866783
H   50.248058   25.437643   37.781700
H   73.744835   66.753036   31.159208
H   91.382225   91.090561   10.461966
H   94.234665   90.293961   89.969933
H   56.598301   64.583801   84.373459
H   61.459412   75.899086   76.411636
H   66.826904   33.016132   13.669173
H   43.040165   20.870989   24.265495
H   31.717976   40.173622   32.910194
H   48.266224   60.973572   12.581091
H   21.073189   97.557541   28.350674
H    5.738171   47.513969   57.506840
H    1.965511    5.464935   63.862137
H   22.271135   95.643440   95.115273
H   25.670401   42.266701   40.464462
H   20.269508   22.707867   95.589180
H   15.568865   44.310207   72.477806
H   83.603142   66.058731   90.452164
H   60.411995   65.393265   91.294678
H   30.280863   48.722572   72.659882
H    4.489552   78.369781   44.693027
H   99.050140   24.128632   21.373484
H   88.527344    8.202074   43.522690
H   48.410568   80.689301   91.503189
H   16.169594    1.860680   87.457458
H   91.825356   66.929993   38.766338
H   66.528038   86.138603   87.582733
H    8.641609   38.172745   81.538826
H   19.872679   28.501434   48.629295
H   68.834579   85.907806   89.446838
H   82.274956   24.110985    3.874505
H   86.169060   38.222103   10.819431
H   84.522621   38.261730   43.758400
H   77.102142   44.168072    9.921755
H   47.698147   11.315516   85.560097
H   83.761375   33.779964   92.655357
H   69.969955   42.949806   41.987114
H   42.372856   98.803146   81.627960
H   45.559959   88.050980   24.809589
H   42.930710   19.500158   69.922928
H   12.475339   87.203880   49.648350
H   25.121157   28.545151   96.323845
H   96.627609   55.892662    8.440421
H   15.968401   14.754018   43.978951
H   64.105095   67.333740   25.901901
H   95.141220   20.013418   73.229866
H   72.201126   32.797115   64.438263
H   99.032707   36.292587   75.375900
H   75.510849    0.887987   61.565331
H   16.218266   29.152630   38.672493
H   96.729256   20.867395   79.918304
H   40.408241   47.793526   70.504791
H   48.966049   30.365545   20.352432
H   29.200048   53.326660   50.716125
H   25.306170   18.965256   43.977119
H   88.587883   65.820793   82.166862
H   56.614971    6.189334   50.382122
