100
TIME:    7.943, STEP:  7943
H   80.169670   93.610344   91.873978
H   81.110580   35.283741   78.937393
H   16.303827   45.354828   30.100925
H   82.809814    5.398140    4.779084
H   24.022924    9.423726   50.337448
H    4.841540   92.602852   65.368874
H   36.677624   97.686172   11.606113
H   95.582153   75.771843   78.894234
H   58.373772   22.606071    0.102884
H   57.808296   30.434710   18.719997
H   61.416519   85.846558   74.638962
H   52.680626   21.831905   27.537251
H   37.251060   81.206390   35.753582
H   61.791267   80.593330   61.707081
H   77.081673   60.524918   68.921173
H   82.152054   17.005310   73.702423
H   85.378151    7.339340   96.470978
H   70.923065    8.332653   24.182747
H   68.976913   11.570653   81.829697
H   78.517349   37.134937   57.128975
H   92.927849   65.467468   41.656498
H   23.883486   54.628433   42.858444
H   79.691704   30.023245    5.090951
H   81.039047   31.849581   17.157265
H   45.496529   56.241501   95.200783
H   10.155468   91.943832   43.410950
H   77.145721   12.295142   57.572346
H   62.333427   27.192083   29.325121
H   83.883522   69.743118   81.702568
H    5.563611   94.249893   14.834381
H   28.661924   34.320053   80.954201
H   67.283165   33.054768   63.940773
H   29.850805   87.335014   13.365125
H   13.712197   45.794106   37.124557
H   83.276268   58.273460    8.309679
H   63.109074    7.558541   94.454567
H   41.635990   13.645182   34.342556
H   35.693726   13.589825   82.956688
H    9.794284    8.353437   74.576729
H   15.051979   68.587051   62.974449
H   92.404205   28.726332   29.478117
H   30.821266   72.751633   85.464287
H   79.644684   11.135542   75.203987
H   72.155304   45.965294   57.359066
H   67.658440   18.503201   35.814362
H   75.594597   14.414874   15.430590
H    3.791661   56.805672    1.709112
H   56.672421   77.180313   60.045376
H   97.214180   74.610298   27.623940
H   92.505127   51.630978   28.157467
H   42.956188    2.797766   37.157791
H   91.157990   26.687029   52.628418
H   73.632988   68.064941   41.554573
H   92.751984   77.608398   82.319412
H    8.361126   54.692108   67.907120
H    3.488756    4.178458   22.228333
H   99.804642   60.354546   11.432914
H   34.603195   26.769251    8.960961
H   16.721668   74.389015    1.701672
H   34.862602   38.313854   37.692772
H   60.751232    9.185884   95.097786
H   17.005348   54.009750   35.958603
H   13.310401   65.266998   88.795105
H   88.471428   85.031937   11.485208
H   47.594963   26.449770   35.266357
H   13.397305   47.403221   15.836501
H   50.286957   22.973053   50.550579
H   31.688545   71.805901   45.923935
H   52.781395   79.053017   62.063087
H   91.342949   47.599735   84.996628
H   69.806313   54.960678   66.870888
H   19.180935   87.860741   38.264874
H   89.092316   25.419302   58.093632
H   55.349415   46.706738   31.206869
H   45.093002   40.010845    3.545359
H   13.432780   16.644196   61.464989
H   88.176476   38.313965   31.611082
H    5.156385   31.349438   53.102947
H   42.408241   30.187626    6.300182
H    9.993377   76.326439   36.624580
H   66.312462   11.456338   54.725174
H   37.332863   95.982117   22.493153
H   20.286673   39.953159   86.394165
H   96.615410   91.858643   37.946690
H   65.572144   52.037495   77.768288
H   68.486069    0.812662   93.369110
H   97.649788   25.831673    2.296160
H   83.774315   69.468262   13.221413
H   20.524261   51.918465   63.227303
H   64.071930   82.479630    8.161053
H   49.082996    2.331460    1.203459
H   66.000465   92.869232   84.872566
H   94.615219   65.849998   33.248962
H   14.926497   95.065514   62.383068
H   19.261951   38.244339   98.609009
H   49.980835   82.071899   57.182671
H   32.123955   23.511528   80.379341
H   22.945490   79.478554   19.425528
H   30.326683   71.101997   79.728081
H   32.581493   74.801834   32.565853
