100
TIME:    0.559, STEP:   559
H   79.519691   70.758186   98.634232
H   85.720604   35.053005   13.261769
H   89.368835   14.120799   16.776291
H   81.570435    9.618830    9.522000
H   90.164139   17.563835   50.548134
H   19.348064    0.605247   34.105022
H   23.673729   99.083015   34.167301
H   75.949997   36.962360   56.869362
H   39.886711   32.547913   64.901451
H   59.563988   24.411785   29.579836
H   48.258209   88.735229   85.903603
H   34.505192   51.710411   53.138588
H    7.704964   27.887268   69.568138
H   27.403355    3.353742   99.779198
H   87.301292   20.091700   23.901327
H   79.047714   62.844082   86.638168
H   79.123787   18.964554   24.250471
H   13.089837   67.516464   80.166794
H   53.968819    1.802336   92.813705
H   77.517769   93.811737   54.324135
H   31.104691    0.566416   42.070885
H   15.948535   44.837753   71.658516
H   78.280571   90.075905   16.356068
H   67.104370   43.386082   65.559814
H    9.591085   41.841610   40.686539
H   44.095821   10.953471   36.778381
H   13.875189   19.239677   11.058851
H   85.374107   82.531418   85.251755
H   23.326172   99.809166   30.747356
H   22.427797   77.004532   27.827129
H   38.091221   72.171013   65.177269
H    1.053047   37.066956   47.514641
H    9.732538   27.582773   48.156090
H    1.720861   22.493561   48.201088
H   66.877007   16.664230   58.766418
H   21.158092   28.398153   18.720892
H   33.414654   84.063820   52.512280
H   40.885460   48.722919   61.887180
H   25.589287   68.574989   88.549133
H   10.542240   59.852345   82.015434
H   97.041016   75.360619   55.511578
H   81.381432   36.946228   29.062780
H   16.055830   66.852097   41.850128
H   43.663086   22.139620   35.388069
H    8.166737    9.836671    3.942259
H   70.812111   73.712700   85.510414
H   41.982594   55.896984   32.399849
H   56.269268    1.138778    3.165701
H   81.369682   86.152939   22.174852
H   37.613804   39.257732   44.567078
H   43.501972   15.675692   59.310886
H   32.298470   11.867588   37.364929
H   20.474894   25.250000   70.405342
H   63.744312   98.081657   56.483418
H   96.257111    7.509358    5.149551
H   94.265671   11.944462   73.597122
H   31.689850   73.417198    9.153023
H   84.434509   24.096352   99.155960
H   34.363884   62.387741   68.569763
H   22.130821   70.755234   47.710289
H   94.962448   52.573761   70.810791
H   79.071136   22.742264   70.063339
H   12.149141   69.033897   95.208351
H   81.425240   44.835304   11.962523
H   54.511093   16.197437   47.620110
H   67.005104   14.483540   79.238304
H   42.719353   67.686523   94.050217
H   41.751915   49.507248   92.926033
H   84.762749    9.620140   25.172626
H   41.710114   76.260399    0.555271
H    4.280822   57.369656   55.443089
H   27.875246   32.973503   97.548561
H   70.543884   90.656654   47.415646
H   17.886925   14.004675   69.985573
H   89.123581   29.439089   43.774220
H   38.874348   43.399551   58.314960
H   17.708191   78.094597    0.925531
H   58.243164   14.168724   45.312328
H   88.346565   51.865086   23.921505
H   72.111099   78.510765   72.762848
H   21.821033   35.064770   13.398941
H   83.265587   47.878250   40.035713
H   53.164982   16.587660   83.141907
H   88.623688   59.995945   12.371651
H   25.111155   13.917369   93.563774
H   38.427082   29.586849   80.601845
H    4.489080   62.709068   50.198406
H   64.953964   60.539085   89.929100
H   67.283638   63.047859   23.627071
H   16.913052   86.284241   44.196072
H   46.899143    3.616683   45.266796
H   19.647295   37.547829   44.174484
H   21.150219   44.379921   62.160606
H    1.256558   47.140678   64.507729
H   46.927540   99.656952   28.931137
H   40.092712   73.656914   38.575981
H   18.231672   99.760445    5.040235
H    8.917615   20.997223   47.091713
H   82.082664   39.259922   98.227638
H   73.957260   64.346901   43.846542
