100
TIME:    8.847, STEP:  8847
H   19.035637   10.709509   91.046341
H   56.143539   84.270081   35.936474
H   31.842707   10.392753   19.489933
H   82.961548   68.153984   55.229561
H   15.922430   81.883316   25.826477
H   90.825073   91.623482   54.894592
H   89.298866   58.730980   82.300087
H   24.529541   53.979046   95.891075
H   36.151726   35.689774   43.200329
H   33.117134   43.414814   54.116554
H   77.328644   22.219997   87.561531
H   18.175072   67.145012   63.189873
H   79.605774   26.490540   45.916580
H   17.031069   77.806953   30.500751
H   88.061653   79.775185   25.448776
H   45.805008   37.938072   98.662170
H   12.683980   67.129799   78.765663
H   90.250778   64.343941   92.846268
H   83.060532   49.497105   29.456036
H   54.160030   17.938135   18.677454
H   39.283195   75.470917   17.121874
H   10.550851   55.828506   65.874512
H   67.622002   22.674520   79.226959
H   97.043747   42.664032   50.019497
H   13.165380   84.548950    1.876144
H    5.892183   65.293930   58.340740
H   99.191872   74.718887   75.506943
H   86.057465   69.387756   59.209396
H    3.540120   51.760891   38.968925
H   40.225685   71.876114   86.700012
H   64.243034   15.383635    9.432594
H   24.362141    8.080282   80.252983
H   93.527237   21.193611   94.804581
H   51.909180   62.947937   99.042229
H   60.778343   89.827980   63.312794
H   41.691776   78.367172   91.613014
H   28.341743   80.538338    5.574370
H   98.330269   97.046532   46.748741
H   71.638756   88.657127   86.972626
H   29.905264   83.956963   34.097885
H   30.621202   59.742020   50.775967
H   54.636948   76.296677   31.616344
H   87.424469   16.558464   40.500675
H   14.434048   61.144798   45.746609
H   89.244095   82.842232   13.172961
H   63.924965   31.653858   19.103228
H   10.859061    5.967741   10.390566
H   56.727596   86.491226   15.979359
H   23.637459   99.742592   91.563202
H   11.482460   65.391136   64.951744
H   42.894115   15.522717   46.689407
H   35.093746   42.803143   93.285378
H   92.378960   73.306641   89.052719
H   71.812775   62.862137   22.209595
H   36.384010   33.913445   75.590347
H    4.614687    3.227538   91.454025
H   57.112068   34.270195   97.410667
H   67.289978   41.397514   85.676048
H   88.021828   12.585759   32.301094
H   75.207359    7.797203   11.980858
H   17.776003   67.143066   24.614582
H   84.920586   45.595444   95.055550
H   74.684311    3.579234   26.805115
H   50.548130   89.956375   86.943085
H   83.476166   54.249493   19.451349
H   57.863686    2.463067   69.288048
H   77.756943   54.224232   94.194626
H   69.242920   23.507072   89.140366
H   97.834137   14.097328    5.363400
H    9.702971   93.006912   83.079269
H   41.095608   93.449455   56.028847
H   44.738037   57.845116    4.527994
H   30.150787   80.701439   34.912907
H   35.451649   89.493263   77.495125
H   88.640488   41.341961   72.087158
H   34.806290   74.583488    0.639158
H   70.279129   60.071064   47.646461
H   47.622845   72.242378    3.035154
H   85.759178   27.532291   16.388796
H   65.660149   27.081709   58.744255
H   84.010094   20.808634    8.756307
H    5.168452    1.846440   46.863617
H   77.467140   55.071323   72.487221
H   58.807556   69.216164   55.379772
H   21.555664   95.488205   90.136307
H   47.679386   34.018349   56.145767
H   58.025974   60.103188   45.402336
H   98.313133   97.128517    3.848245
H   39.286137    1.585970   55.833748
H   84.145340   45.287682   40.475494
H   86.078362   51.141804   20.294579
H   32.887310   60.858292    2.100423
H   52.563221   92.968895    3.156673
H    2.294034   49.910145   23.337614
H    3.630204   57.270130   19.380796
H   24.647552   46.373169   10.489962
H   60.369011   75.389992   28.389721
H   21.200556   24.210327    1.276144
H   87.262474   75.005684    4.007648
H   88.732788   51.604107   45.480923
