100
TIME:    7.860, STEP:  7860
H   85.782707    1.221847   91.949966
H   83.402908   30.785839   73.704300
H   14.877138   39.383377   31.075165
H   82.795883    8.817951    9.328697
H   24.766665    2.770972   52.587982
H    6.128758   92.692772   57.148895
H   41.027348   92.082001    5.115406
H    2.105797   68.590904   86.514641
H   60.414070   30.586475    5.327478
H   60.075294   29.242952   15.469894
H   69.136978   82.506851   82.634247
H   55.848724   17.671520   33.445137
H   42.543678   86.230515   44.001530
H   65.900993   80.849159   55.390514
H   76.073555   67.938889   72.913116
H   85.489227   24.264771   80.592072
H   92.052498    1.849705   88.915161
H   69.148727   12.371298   27.059872
H   67.683838    8.088468   77.456543
H   80.753952   38.897243   51.477943
H   97.853188   73.729980   43.908932
H   15.926194   54.518250   49.926666
H   80.799873   30.697962    7.465758
H   88.750641   30.856661   23.321537
H   48.465157   62.824028   94.587807
H   10.546810   94.390671   51.221962
H   84.302597   15.745507   55.925289
H   69.336906   23.317923   26.581610
H   82.078789   62.212635   85.626122
H    2.381126   96.304123    8.236340
H   25.395357   26.877369   87.520897
H   62.042477   35.347729   71.624504
H   24.004419   93.407784    5.887829
H   10.205157   53.400581   40.621307
H   85.341896   64.557732    3.259682
H   55.893940    1.057368   94.715462
H   33.675533   16.685049   27.802458
H   39.123985   15.108809   77.099220
H   13.297841   10.161654   82.620140
H   22.869640   76.356903   56.443848
H   98.076767   25.878653   27.522673
H   37.816032   72.426147   81.226646
H   78.930389   10.637657   69.208473
H   77.455521   44.572166   49.244099
H   74.858376   21.777683   28.711796
H   76.666039   12.832091   15.093390
H    3.142828   52.291939    0.911982
H   56.667355   76.325439   54.909801
H   94.787605   81.484749   30.934834
H   90.762451   50.367664   33.960899
H   42.961887   10.811098   36.282654
H   87.124252   34.388905   58.076813
H   71.911842   67.583679   46.374794
H   94.674500   78.962265   78.656754
H   14.969933   47.418083   67.201691
H    3.385380    4.265766   25.053848
H   94.542419   62.749458    3.538791
H   40.783615   34.607704   11.098937
H   10.175552   70.882133    8.073647
H   40.339493   31.933964   40.053490
H   55.515606   13.045639    1.569373
H   19.951180   54.782303   39.714348
H    7.675513   70.930695   94.486664
H   82.772270   84.579803   13.738750
H   44.300217   33.078892   27.536852
H   18.495834   51.529411   10.928735
H   56.946106   20.103527   46.543438
H   37.421898   67.059135   41.956055
H   48.644440   85.016869   67.268555
H   89.657265   43.431118   85.172668
H   72.441856   60.607910   67.866341
H   26.015808   90.616600   32.181339
H   94.503983   29.524912   60.221951
H   57.176311   51.959461   36.138489
H   41.094727   39.888630   97.252289
H   11.470529   11.324665   67.049873
H   80.638390   45.498070   30.139116
H    1.257291   36.776302   48.518925
H   38.428329   30.431423    5.373911
H   14.063684   80.847771   43.775124
H   64.687569   10.597665   49.764374
H   31.104904   95.443863   29.436943
H   15.036798   38.565098   78.490067
H   90.904854   84.756226   45.527203
H   69.613480   57.229427   85.814232
H   70.395920   97.764160   87.605362
H   92.106407   31.866447   98.338387
H   82.439445   76.109680   14.081985
H   18.801533   56.539848   63.906136
H   71.409912   85.894058    5.194091
H   45.686298   97.849648   99.450607
H   59.859303   86.626755   83.290733
H   89.294739   63.359936   26.830446
H    6.904943   90.029991   56.786495
H   20.697189   45.679207   96.701691
H   43.125381   85.349548   61.469704
H   38.712181   18.748615   85.152702
H   23.105700   75.371361   21.091898
H   34.280632   70.743584   86.679787
H   27.426287   76.932053   40.561771
