200
TIME:    0.089, STEP:    89
H    4.831224   62.976131   12.757570
H   26.618416   30.673567   83.767181
H   21.302629   62.528908   37.910637
H   12.752604   75.208839   48.448307
H   16.813421   79.902176   55.829517
H   94.530884   56.913372   70.019341
H    1.171547   55.411270   46.728642
H   99.504837   82.365845   30.432190
H   81.296173   89.769981   51.403061
H   16.176708   77.014030    2.028365
H    6.930444   91.368477   88.189926
H   30.153397   37.992435    5.547388
H    7.468066   81.996513   67.480431
H   11.541138   52.569859   34.989529
H   26.912258   70.782181   43.350124
H   33.701752   32.187950   57.580395
H   77.103943    0.646479   22.763334
H   40.147900   75.908043   46.208649
H   60.001385   35.168461   40.260975
H   89.575851   81.778343   43.324230
H   56.272919   69.220467   32.758465
H   93.390678   43.042656   76.393639
H   99.526962   63.639351   52.759369
H    5.432362   86.718971   92.065720
H   96.683258    6.630853   50.798435
H   18.786089   55.635445   11.943724
H   95.971886   55.766895   43.010620
H   91.044952   63.900349    0.333953
H    4.708801   61.119453   39.222553
H   99.872948   16.719250    3.849090
H   13.558635   45.140690   16.010199
H   34.671936   59.967270   89.885498
H   30.771805    5.736358   71.334740
H    1.424261   63.413177   35.650978
H   55.234760   96.040451   35.367672
H   37.993710   53.364819   77.744965
H   81.930496   77.688118   84.821327
H   40.384148   40.849327   21.956694
H   58.658791   51.807709   41.075169
H   91.530861   40.309437   69.594818
H   80.459763   12.278490   96.512001
H    5.823432   46.273266   44.308537
H   79.420670   91.250717   44.721310
H   37.617661   55.900654   13.347867
H   23.617889   71.688148   38.914772
H   43.184727   17.768309   41.045647
H   77.128616   33.609997   92.868050
H   93.791977   65.552910   53.076065
H   81.240685   34.482403   61.057465
H   67.520660   17.120073   12.100886
H   81.800293   72.407349   33.852997
H   26.910406   33.098980   60.294621
H   48.104885   98.743530    5.952694
H   24.653933   78.997162   79.467056
H   83.590408   79.743126   95.656845
H    7.241367   76.069992   73.703674
H    5.861418   16.174049   51.274357
H   65.758957   55.069134    8.028804
H   31.367413   71.560501    3.474379
H   46.595695   96.837074   69.785622
H   50.908558   18.322456   46.648235
H   87.223640   16.067175   47.908958
H   67.287300   22.078396   89.979233
H   20.467451   64.936905    0.296133
H   68.921028   73.827988   11.754865
H   44.662907   10.694787   30.149094
H   91.815529   26.347086   82.715401
H   98.187019   91.106621   84.282013
H   11.151525    3.812699   63.891037
H   46.106178   38.998154   50.990658
H   58.531406   73.980461   69.242294
H   36.384026   27.790894   45.821823
H   72.701309   23.052578    4.551796
H    2.946007   12.283715   56.177025
H   77.306381   98.427055   74.712730
H   49.497055   24.407661   63.864193
H   96.065811   24.328825   74.281456
H   32.148094    3.220300   53.130974
H   10.382553   22.965809   38.282825
H   70.551369   91.509087    1.422732
H   36.959309   32.654030    3.374985
H   19.996973   71.305603   92.525291
H   11.588837   12.009957   94.697784
H   29.598167   56.921959   88.930023
H   44.285358   97.727127   62.061443
H   20.413023   91.057571   30.926159
H   29.087568    2.469459    1.425154
H   76.587212   24.164276    5.746827
H   61.069042   71.675102   76.616806
H   24.200443   79.278931   56.526745
H   47.572449   33.589264   81.426125
H   85.107239   87.210617   95.073013
H   40.086525   18.565100    0.030382
H   66.799210   99.858597   64.958481
H   21.298693   58.968765   61.650803
H   75.525337   24.333248   36.161240
H   77.257271   19.501940   91.825966
H   11.045776   26.092295   47.163891
H   40.439461   71.290657   52.346127
H   64.578934   95.473541   27.213541
H    3.129223   76.251404   61.829235
H   84.957268   74.372078   66.697525
H   20.049307   42.688217   28.392595
H   14.620075   67.660690   84.166008
H   25.538906   29.457119   20.191948
H   81.445175   34.165886   50.960255
H   58.505299   28.221838   56.961975
H   65.640572   28.476742   24.580425
H   68.959122   41.995701   91.830971
H   99.516159   30.165739    4.798232
H   45.207851   97.378952    0.689611
H   79.930779   59.547604   88.791168
H   59.716656   78.522408   97.219833
H   63.735680   22.652719   78.847870
H   68.889275   75.680740   32.067142
H   20.200794   10.214804   72.122383
H   38.783276    6.316422   82.419785
H   41.537220   19.564102   36.996849
H   13.127782   52.044430   91.002563
H   66.797729   43.661129   43.709866
H   38.978584   20.756008   92.467834
H   24.804451   31.057110   43.746479
H   28.595953   28.191036   19.549736
H    6.302042   72.752991   24.477617
H   81.434258   12.689748   97.807320
H   42.190258   58.220642   28.446907
H   99.139977   48.484879   76.886383
H   78.731567   86.385674   33.727268
H   90.609482   57.949516   88.331406
H   60.426292   24.865049   63.929108
H   42.513519   90.577240   97.640800
H   87.495911   84.553726    5.766079
H   92.930824   75.248184   96.251915
H    8.324879    9.131387   47.848278
H   96.966591    4.100410   63.355614
H   66.379845    1.820645   85.906189
H   68.642723   86.179741   47.821609
H   89.930367   68.935066   85.584244
H   42.366348   42.221947   71.585800
H   43.366150   16.332083   99.653214
H   43.142078   67.509651   10.032356
H   64.189697   36.422832   42.726837
H   59.859615   53.981697    4.477304
H   64.632225   31.993830   75.622200
H   33.204227   74.774986   44.130909
H   40.407467   59.373852   37.078091
H   41.159935   97.439064   48.363083
H   46.775589   79.039490   69.691307
H   61.148533   71.096237   99.445564
H    4.626098   86.990715   95.641571
H   81.542641   58.745510   52.484138
H   27.431202   11.287842   52.884327
H   69.160988   37.484730    8.765644
H    5.918222   97.676414   79.683975
H    7.624813   49.891258   58.021152
H   59.019516   43.154491   49.415363
H   57.730663   56.355499   78.967819
H   43.899242   39.082634    6.186473
H   19.292807    2.303295    8.204613
H   65.372131   63.104919   72.446320
H   52.472698   90.543991   87.430740
H   50.693752   23.838823   36.852116
H   58.719555   41.153271   37.294838
H    5.732078   15.743728   77.659424
H   60.399994   16.964670    8.340863
H    9.312104   69.243248   63.127258
H   77.499985    0.009284   50.620941
H   23.500305   24.062382   41.768665
H   92.021179   28.661266   37.213490
H   19.582035   11.599224   92.103760
H   82.249695    3.838079   35.988747
H   51.379372   71.055237   56.994419
H   34.755405   83.942520   94.672745
H   73.081413   78.163986   70.746384
H   78.456085   96.172455    6.330979
H   96.245125   46.845207   23.141876
H   36.968964   48.204128   80.591339
H    0.391725    9.056854   62.949383
H   79.463203   24.889826   70.900917
H   93.483490   52.835335   84.254883
H   84.174644   79.778290   45.230137
H   16.181965   29.921719   64.103661
H   72.586548   90.322433    3.081437
H   48.193001   24.940681   71.635155
H   83.570259   94.883720   79.018936
H   96.099236   34.949615   83.198463
H   26.094410    7.111110   95.919632
H   97.675438   60.828720   20.243010
H   10.991228   60.500038   64.817657
H   46.867687   59.094715   63.795246
H   40.606781   36.020161   80.379768
H   48.890781   80.825638   26.547716
H    0.746412   13.931680   54.347218
H   37.741734   57.504192   30.270008
H   90.076477   60.999947   22.310221
H   74.959488   10.012921   31.635145
H    8.457566   81.442024   98.370132
H   33.297977    0.407179   51.225224
H   13.926929   11.189384   84.770317
H    9.582717   40.108368   99.846657
