100
TIME:    1.669, STEP:  1669
H    4.455052   68.965530   97.617996
H   54.843987   95.235146   83.280296
H    8.443464   93.979057    3.743299
H   81.756744   63.887352   48.680355
H   80.221970    6.535222   20.450943
H    2.135275   99.399940   44.032574
H   65.496422   74.037254   20.970833
H   88.706184   32.991596   54.952744
H   12.600792   25.825958   95.028969
H   29.229750   40.347725   73.047539
H   45.008713   33.398167   78.982529
H   92.138260    7.349025   74.127922
H   37.097359   60.730568   59.243156
H   72.442574   99.931526   84.251686
H    0.800488   20.945347   70.546463
H   34.418045   65.754265   94.499771
H   89.882370   92.370621   25.313646
H   36.810204   13.537333   41.685349
H   71.256844   48.371178   51.290737
H   47.551369   70.369247   29.965891
H   65.235809   90.062866   11.945156
H   22.382572   46.302826   77.143166
H   63.460472   81.048347   84.597595
H   63.973335   56.698765   83.119949
H   69.890984   53.806747   48.876350
H   39.006176   77.876923   32.737320
H   18.158680   73.100235   33.085751
H   91.716782   34.342983   21.940203
H   47.461761    0.517048   78.278069
H   64.990166   49.532303   16.069332
H   81.755470   71.712540   77.342133
H   71.138885    6.401446   44.756371
H   87.919754   46.369972   48.153656
H   48.620766   20.768715    1.439552
H   39.286217   32.756660   26.359062
H   17.667809   15.592154   14.902112
H   39.877838   43.414406   39.975895
H   95.009254   28.406681   40.217747
H   75.689407   44.879768   82.161392
H    5.992651   55.937717   69.348587
H   21.183830   13.450801   81.665451
H   81.620972   86.763298   81.212585
H   25.616911   73.508438   22.027275
H   72.782463   40.742950   43.919827
H   11.882523   66.038315   98.930496
H   56.555119   94.750404   89.948006
H   53.703175   15.773143   41.884712
H   56.328548   12.567305   71.846199
H   13.818074   94.223351   77.898026
H   60.894062   56.152645   66.931480
H   43.417286    8.512140   71.014526
H   86.243629    8.867983   64.496597
H   43.501091   31.686157    5.936230
H   38.042027   79.975731    5.465521
H    7.890263    4.818002   14.568783
H   95.654526   10.777908   35.810104
H    2.060068   41.388847   14.723354
H    1.780086   19.271107   70.565872
H   21.907600    9.287463   83.353653
H   48.881130   56.073750   16.139244
H   64.982529    0.956857   84.267296
H   39.675079   12.409801   19.836929
H   87.440063   93.339622   19.058449
H   57.647606   50.873436   81.827782
H   98.566719   27.543507   50.992390
H   98.816109   59.302101   44.869656
H   53.661758    6.065499   47.642101
H   65.076515   12.988847   45.990452
H   40.085472   29.862625   55.556870
H   64.194397   32.088493   98.218689
H   69.033989   81.841789   42.130405
H   36.350536   96.134048   78.818596
H   98.169205   35.750431   18.952587
H   93.458519   43.762283    4.014961
H   42.640610   31.018488   27.919819
H   65.118263   14.539454   83.626823
H   18.488993   81.889633   20.565058
H   10.392985   41.589050    6.611600
H   41.552940   48.613132   36.299873
H   17.674759   18.056238   77.135384
H   43.543064   46.548229   79.741066
H   66.550964   55.127396   47.216995
H   23.400303   35.113495   88.863953
H   64.983589   54.980083   10.985237
H   71.062912   44.487869   85.961685
H   12.877232   70.361717   57.683708
H   78.623451   82.003021    3.127425
H   82.822769   71.670456   78.394753
H   90.318306    1.245437   14.544807
H   18.776146   40.608803   83.880058
H   92.324867   63.551090   68.707962
H    1.776085   21.030504   65.321175
H   92.370735   77.639694   48.033676
H    8.542410   14.469399   39.350716
H   27.736687    0.229907   54.438133
H   31.774170   29.823507   81.242813
H   30.124649   63.460964   41.203598
H   12.993142   30.448212   29.332363
H   29.204777   44.044697    5.247424
H   42.891922   35.833134   36.937569
