100
TIME:    7.747, STEP:  7747
H   93.424553   11.584262   92.053421
H   86.523788   24.662189   66.579727
H   12.934778   31.253609   32.401669
H   82.776917   13.473839   15.522825
H   25.779226   93.713554   55.651962
H    7.881236   92.815193   45.957695
H   46.949261   84.452225   96.278641
H   10.987373   58.814899   96.889412
H   63.191826   41.450989   12.440453
H   63.161690   27.620440   11.045055
H   79.647964   77.960022   93.519394
H   60.161919   12.007534   41.488731
H   49.749290   93.070587   55.230663
H   71.496162   81.197456   46.790852
H   74.701057   78.032608   78.347931
H   90.032608   34.148132   89.971954
H    1.139287   94.375290   78.628326
H   66.733063   17.869766   30.976921
H   65.923386    3.347767   71.502731
H   83.798965   41.296528   43.784370
H    4.558746   84.978943   46.975498
H    5.092774   54.368240   59.549667
H   82.308586   31.616552   10.698930
H   99.249557   29.504854   31.713860
H   52.506783   71.785034   93.753273
H   11.079601   97.721909   61.856232
H   94.046295   20.442789   53.682911
H   78.871971   18.043463   22.846468
H   79.621742   51.960285   90.967827
H   98.048248   99.100845   99.253349
H   20.948103   16.744423   96.461098
H   54.907558   38.469471   82.085487
H   16.044882    1.675458   95.707893
H    5.430512   63.756386   45.381943
H   88.154137   73.113426   96.384796
H   46.070927   92.206772   95.070656
H   22.837437   20.823664   18.898466
H   43.794098   17.176945   69.124596
H   18.067837   12.623442   93.570808
H   33.512901   86.935135   47.552788
H    5.799406   22.001692   24.860441
H   47.339027   71.983017   75.457329
H   77.957916    9.959814   61.046215
H   84.671478   42.675499   38.196011
H   84.660698   26.235714   19.041809
H   78.124748   10.677218   14.634310
H    2.259476   46.146736   99.826851
H   56.660458   75.161575   47.917995
H   91.483955   90.843941   35.442764
H   88.389893   48.647732   41.862244
H   42.969646   21.720816   35.091202
H   81.632538   44.874889   65.494507
H   69.568596   66.928467   52.937263
H   97.291901   80.805481   73.670242
H   23.967464   37.514893   66.241287
H    3.244638    4.384631   28.900635
H   87.378189   66.010002   92.791527
H   49.197922   45.279045   14.009675
H    1.263306   66.107704   16.748745
H   47.795982   23.248089   43.267479
H   48.387585   18.300579   10.379607
H   23.961769   55.834091   44.827591
H    0.003838   78.641510    2.235413
H   75.013176   83.964249   16.806881
H   39.814598   42.104443   17.013365
H   25.437206   57.146996    4.247077
H   66.012177   16.196823   41.087933
H   45.227547   60.596672   36.554001
H   43.012199   93.136330   74.355194
H   87.362297   37.755772   85.412338
H   76.030006   68.296310   69.221596
H   35.320965   94.368553   23.898516
H    1.871703   35.114239   63.119541
H   59.663532   59.110760   42.852692
H   35.651291   39.722240   88.684525
H    8.799029    4.082355   74.653786
H   70.375694   55.278839   28.135115
H   95.948471   44.164684   42.278027
H   33.009895   30.763340    4.112843
H   19.605045   87.003319   53.510201
H   62.475365    9.428628   43.010513
H   22.625507   94.711060   38.890224
H    7.889377   36.675327   67.729065
H   83.130241   75.086670   55.847660
H   75.115540   64.297997   96.768349
H   72.996078   93.613907   79.758331
H   84.559395   40.082466   92.950127
H   80.622093   85.151611   15.253609
H   16.456131   62.831612   64.830330
H   81.400177   90.542618    1.154734
H   41.061878   91.747551   97.064255
H   51.498447   78.127960   81.137154
H   82.051193   59.969212   18.091982
H   95.983925   83.174400   49.167065
H   22.651188   55.801376   94.104980
H   33.792053   89.811890   67.306267
H   47.681694   12.264043   91.651375
H   23.323816   69.779640   23.360571
H   39.663719   70.255623   96.144157
H   20.407755   79.832230   51.447781
