100
TIME:    0.747, STEP:   747
H   66.805824   53.517586   98.462112
H   80.491051   45.246761   25.120695
H   92.598938   27.645828   14.568863
H   81.601990    1.872751   99.216911
H   88.480240   32.632866   45.450539
H   16.432796    0.400637   52.724010
H   13.820705   11.777905   48.869144
H   61.173569   53.226185   39.607246
H   35.265312   14.472504   53.066933
H   54.426231   27.110470   36.942230
H   30.770905   96.299866   67.793800
H   27.329258   61.133934   39.756325
H   95.746140   16.513062   50.882744
H   18.094578    2.774095   14.086559
H   89.587608    3.299551   14.864309
H   71.488815   46.399532   71.032700
H   64.008858   31.397293   41.367393
H   17.107124   58.374069   73.649216
H   56.896278    9.689555    2.718798
H   72.428780   89.870209   67.149879
H   19.948502   81.851288   36.968987
H   33.975147   45.085892   55.650684
H   75.770500   88.546913   10.976963
H   49.637146   45.640842   51.596809
H    2.867588   26.931789   42.074181
H   43.233791    5.351984   19.157160
H   97.663803   11.424541   14.789534
H   69.510460   91.306625   91.465256
H   27.414001   16.865782   21.860989
H   29.636003   72.351578   42.772610
H   45.486607   89.030083   50.300438
H   12.923103   31.873260   30.110527
H   22.975124   13.828302   65.092613
H    9.664517    5.264659   40.280739
H   62.203972    2.452584   70.214554
H   37.504150   43.166149   18.074011
H   51.445568   77.179054   67.325996
H   33.115715   45.281971   75.154472
H   17.137520   64.561745   70.531128
H   92.834496   42.251728   96.806206
H   84.192322   81.812218   59.942211
H   64.485069   45.384369   37.895359
H   17.675184   67.979477   55.428894
H   31.657797   25.290117   53.770393
H   91.858833    2.419392   20.030378
H   68.411049   77.246880   86.247658
H   43.967701   66.038818   34.006294
H   56.279308    3.074471   14.798018
H   86.866020   70.581894   14.675414
H   41.556767   42.119213   31.418610
H   43.487629   97.525124   61.293125
H   41.435127   94.422745   25.022552
H   24.374826   26.340088   59.486656
H   59.391132   95.015068   64.779556
H   81.291351   23.990488    6.744881
H   94.500900   11.746883   67.197159
H   43.607666   67.992577   27.033470
H   70.435486    6.342279   94.313675
H   49.190514   70.331039   54.136593
H    9.725152   85.204636   42.363121
H    6.821671   43.831543   56.152748
H   72.398651   20.992386   61.557373
H   24.901127   56.213890   82.310890
H   94.334175   45.857979    6.857756
H   61.973892    1.181921   65.128838
H   55.455910    5.137526   90.354332
H   27.635771   74.186890    3.126846
H   28.765526   60.258957    1.913520
H   94.131767   96.111679   13.381111
H   45.518250   85.715477    0.159937
H   98.310753   44.576900   53.188328
H   12.373850   26.734184   11.313021
H   58.286133   81.356483   42.594875
H   13.749089    2.107387   58.812172
H   98.188522   29.706591   58.025684
H   43.319324   55.449326   45.665638
H   34.777508   61.800652    4.252024
H   67.075745    1.875757   55.695415
H   97.357002   51.314304   26.017773
H   62.891251   68.272545   56.566437
H   25.500080   37.009716   24.634819
H   97.370750   49.106033   24.314415
H   65.059975   19.725248    1.048018
H    1.555715   76.083351   95.199898
H   15.956570    2.157673   75.339226
H   34.099720   36.492878   93.657082
H   17.045172   49.039940   59.162945
H   67.980392   45.487267   87.975548
H   71.185005   52.580147   22.088757
H    0.291378   78.547485   50.917324
H   54.592869   13.768049   49.237011
H   33.557392   51.687416   47.755997
H   33.212257   50.012520   76.704674
H   19.427797   58.545006   77.184303
H   43.677357   82.817963   33.250816
H   55.620728   66.232841   28.865593
H    3.309355   10.549129   94.228165
H    9.607884   22.597931   44.083931
H   73.126732   40.070316   82.478737
H   85.632675   59.517628   25.739359
