100
TIME:    8.545, STEP:  8545
H   39.458244   38.403740   91.322830
H   64.484299   67.906525   16.894192
H   26.651621   88.665833   23.034756
H   82.910858   80.596001   71.783272
H   18.628569   57.676685   34.014297
H   95.506958   91.950661   24.985638
H    5.127411   38.337593   58.683292
H   48.266144   27.853113   23.619972
H   43.575462   64.725754   62.211269
H   41.365730   39.078541   42.292030
H    5.419937   10.069165   16.652208
H   29.702370   52.007229   84.686913
H   98.863251   44.768784   75.928101
H   31.983377   78.737801    7.517582
H   84.393562    6.751297   39.971375
H   57.947495   64.352013   23.731339
H   36.969032   47.155392   51.273415
H   83.792358   79.039345    3.315505
H   78.355606   36.826984   13.546382
H   62.295727   24.351534   98.115974
H   57.204308    5.534909   25.318628
H   81.597816   55.427597   91.592621
H   71.654137   25.129515   87.867249
H   25.103853   39.051239   72.448822
H   23.965893    8.498352   99.646706
H    7.316679   74.196884   86.759689
H   25.233683   87.271500   69.516342
H   11.539772   55.291416   49.225830
H   96.973274   24.361128   53.244987
H   28.645725   79.350540   62.691528
H   52.356350   88.302422   33.325874
H    5.293882   16.423893    8.210579
H   72.255997   43.289146   67.598038
H   39.149200   90.624512   11.764421
H   68.294243   12.693565   44.937778
H   15.439848   54.712608   92.562294
H   99.376091   91.597908   81.777977
H   10.812294    2.572579   25.438332
H   84.384911   95.237572   16.238392
H   58.349182   12.228734   10.336987
H   51.261047   49.380585   43.660976
H   80.087784   75.112381   16.198612
H   84.825470   14.746706   18.687977
H   33.716869   56.073524   16.219860
H   15.440685   94.754311   87.329643
H   67.823418   25.894817   17.876307
H    8.497958   89.543831    7.490359
H   56.709164   83.380722   97.293755
H   14.810539   24.753441    3.609397
H    5.143368   60.793804   86.066307
H   42.914852   44.679161   43.505173
H   20.415865   70.827072   13.110131
H   86.116478   71.555542    6.591784
H   78.807953   67.788788    8.883964
H   60.429359    7.447395   73.023605
H    4.238546    3.545213    1.734831
H   37.967491   42.984215   68.688042
H   89.777771   69.917381   93.454613
H   64.202278   99.824471   55.487022
H   95.137627   84.585236   20.570457
H   98.725296   81.188721   48.159946
H   95.639153   48.406418    8.719797
H   54.181530   24.187704   47.514160
H   29.809254   88.311264   95.140991
H   71.490356   78.369507   91.327240
H   76.416115   17.475914   51.431446
H    1.986698   43.784458   79.614426
H   90.104034    6.234589   74.703018
H   82.783905   35.797127   24.304893
H    3.569320   77.836868   83.719803
H   50.687481   13.998307   59.650856
H   69.606461   67.872459   82.390732
H   49.841431   95.641075   42.656910
H   42.098911    8.607258   95.439278
H   74.092545   40.897274   49.189243
H   27.665956   55.228195   20.959616
H   42.851395   86.208862   42.289482
H   33.436642   91.988319   86.354004
H   71.275749   28.419361   13.018440
H   80.470757   43.533165   84.761894
H   78.097832   17.684305   90.705917
H   82.505875   99.886078   72.128563
H   58.365662   50.020786   43.726109
H   38.031693   43.373634   82.963463
H   36.260284   14.380295   19.411453
H   54.630787   22.925159   35.174057
H   37.856083   82.061043   31.001854
H   93.456139   21.294411    6.979574
H   33.019047   18.400446   58.303719
H   10.845670   57.713570   29.680647
H   73.719292   34.835850   13.916892
H   10.542368   38.144699   96.345619
H   33.204365   83.909264   79.802551
H   73.106094   31.588123    2.974972
H    8.852154   84.320572   12.441772
H   99.703522   58.299072   26.088768
H   84.340630   58.058723   45.758095
H   21.783487    9.267236    7.339323
H    1.649093   73.701576   29.304111
H   69.972992   59.352718   74.573669
