100
TIME:    5.560, STEP:  5560
H   41.321938   12.141623   94.055679
H   46.921028    6.150992   28.680901
H   75.330994   73.912781   58.080631
H   82.409836    3.577499   35.400200
H   45.370636   18.415941   14.951071
H   41.801830   95.184532   29.371481
H   61.568996   36.775707   25.252321
H   82.881256   69.611740   97.692528
H   16.952522   51.722092   50.105392
H   22.899946   96.216728   25.413054
H   83.077377   89.961380    4.182518
H   43.632179    2.384860   97.162682
H   89.271835   25.366592   72.552177
H   79.783089   87.938393   80.358757
H   48.129280   73.385941   83.508575
H   77.968018   25.431229   71.512421
H   77.004951   49.720707   79.537079
H   19.964621   24.287872    6.787882
H   31.867332   11.600902   56.283039
H   42.720009   87.740761   94.883308
H   34.338432    2.701064    6.336761
H   95.422958   51.464966   45.792908
H   11.509376   49.403099   73.271988
H    2.453441    3.342013   94.138931
H   30.725876   45.224495   77.601723
H   21.200705   62.293381   67.579529
H   82.634186   11.353668   10.284513
H   63.404087   15.961693   50.558281
H   32.068108   53.538548   94.348663
H   14.188684   53.229790   25.392361
H   34.875954   20.631767   69.489433
H   16.818851   98.897247   84.547020
H   61.997334   61.686195   98.685661
H   13.024461   64.181908   37.516441
H   42.565384   38.626816   63.291870
H   55.958775   20.911789    1.946072
H   13.075696    0.915243   46.571514
H   34.187244   57.205425   14.795946
H   10.381797   60.273796    5.507275
H   39.503597   91.674522   75.484337
H   55.264877   46.958878   73.336891
H   31.919361   61.395218   64.008263
H   59.132374   96.841614    3.079240
H   24.319210    5.967313   24.363592
H   74.366219   12.523887   31.895117
H    6.354353   68.965317    5.749289
H   85.172165   27.210129   78.836510
H   56.536350   52.636169   12.599174
H   27.554688   71.969910   22.682838
H   42.487698   15.358107   94.791183
H   43.120426   32.861771   12.038369
H   75.338264   47.813305    9.057396
H   24.202808   54.247498   79.953514
H   47.933235   16.484901   77.164146
H   98.099022   45.857075   47.638981
H    0.520687    6.685143    3.351288
H   48.730865   29.115501   84.789650
H   12.046712   51.814430   70.342392
H   28.782187   73.692650   84.639183
H   92.116623   55.149128    5.470955
H   10.429394   20.006626   80.894279
H    1.582500   76.190384   43.782600
H   51.529507   27.878965   52.204559
H   24.834412   72.050812   76.187103
H   53.009819   16.775787   13.347552
H   59.786369   65.869011   74.933922
H   41.479645   40.585827   35.499771
H   96.298378   35.520237   32.002750
H   34.011929   50.280190   11.518287
H   43.030075   27.793587   90.025360
H   45.478081   17.098358   95.451180
H   15.520000   66.999359   63.700302
H   44.469299   43.285156   19.188805
H    7.813717   97.527061   72.797325
H   30.241648   36.567135   22.883957
H   57.102791   63.918137   21.812361
H   71.767632   44.642529   89.379616
H   93.199234   87.165794   21.497217
H   28.135365   37.187252   79.716515
H   26.855770    6.139293   41.922211
H   19.672358   86.802414   12.297439
H   58.504112   80.528259   21.846903
H   69.558342    0.102225   59.450825
H   32.669327   87.940109   55.596134
H   81.603020    1.102690    8.772734
H   23.326908   13.281386   27.886627
H   38.494560   99.095482   88.665710
H   45.449089   60.157772   37.929184
H   71.068954   84.600609   82.717171
H   74.760529   80.522629   22.974501
H   51.560783   73.654572   50.878826
H   89.682594   13.644626   39.466637
H   41.860107   94.346687   48.967915
H   84.620247   50.491894    1.701460
H   60.462563   51.699383   43.848301
H   53.154800   76.173492   80.267593
H   21.275686   86.757820   17.428696
H   27.273657   63.577759   67.060066
H   43.847412   60.817272   79.329048
H   84.563965   35.955982   62.129200
