100
TIME:    6.780, STEP:  6780
H   58.818436    0.262541   92.938736
H   13.229164   72.263252    5.605531
H   96.310913   61.684242   43.755833
H   82.614609   53.314728   68.529297
H   34.443207   16.204237   81.872040
H   22.878948   93.862816   50.192738
H   97.631058   19.155178   20.657984
H   86.991661   75.157532   85.676735
H   86.962532   34.424118   73.310921
H   89.573586   13.735449   73.182167
H   69.595947   39.050434   86.665459
H   97.065567   63.536991   10.321499
H   11.420883   51.589306   51.326591
H   19.376041   84.178017   73.201759
H   62.955879   64.409813   24.852688
H   28.915295   18.725563   70.241699
H   78.899788   30.415157   90.598488
H   46.054554   64.924255   64.493690
H   50.864712   62.784828   20.559147
H    9.853951   61.828457   77.946556
H   61.941910   81.247040   73.220299
H   12.385544   53.084534   41.898636
H   95.219429   39.480919   38.367508
H   89.098228   17.936739    3.531195
H   87.093086   48.472733   86.611732
H   15.638950   26.225643   52.855331
H   77.432472   60.642403   34.493710
H   60.464111   72.907188   90.883041
H   58.595512   64.226601   36.677155
H   60.968311   23.035088   22.378963
H   82.891548   30.031616   72.966988
H   93.850708   65.184174   71.605507
H   47.931614   72.425377    8.592900
H   64.572975   52.376144   86.121185
H   12.220596   46.328896   37.552299
H   62.011410   16.467323   98.110237
H   30.089554   56.237427   42.702732
H   83.762337   34.875866    0.888293
H   58.888233   33.690544   87.280197
H   24.593559   77.462830   71.471664
H   71.886734   88.821846    2.079425
H   28.832611   68.190918   26.091488
H   69.635956    4.159157   91.200890
H   46.417034   26.444723   43.647942
H   68.540062   64.385483   36.293522
H   90.607689   92.234970   10.705725
H   94.703415   93.556900   90.545799
H   56.601505   65.201782   88.085922
H   63.213104   70.929604   74.018448
H   68.086670   33.929371    9.473884
H   43.036045   15.078218   24.897896
H   34.634411   34.605843   28.971596
H   49.510883   61.321472    9.096365
H   19.683876   96.578842   30.998150
H    0.960778   52.772301   58.017246
H    2.040241    5.401821   61.819595
H   26.074694   93.912178    0.821768
H   21.202856   36.600502   38.919052
H   25.001411   25.243420   90.983162
H   11.609552   48.922176   70.771263
H   87.387932   63.268326   85.773819
H   58.282478   64.834793   88.580139
H   34.354404   44.628334   68.545502
H    8.609703   78.696625   43.063847
H    1.431596   19.336533   26.961176
H   84.841431    5.219400   47.070358
H   43.596725   82.763885   94.399918
H   12.024891    5.292265   90.325806
H   94.815468   62.618774   35.003063
H   67.743858   89.156181   87.456390
H    6.736244   34.090408   80.819221
H   14.925729   26.509926   53.022797
H   64.922531   82.940460   87.908752
H   80.953850   20.313606    0.309614
H   89.062126   38.307705   15.368000
H   85.940773   42.107403   39.721382
H   82.551361   38.974743   10.985826
H   50.517056    7.392243   88.873390
H   86.638878   33.603725   93.324608
H   67.027451   39.681374   36.818047
H   43.547020   99.423874   85.214081
H   50.062065   88.440079   19.789982
H   46.726028   20.503576   75.636734
H   16.603222   92.338158   44.168461
H   22.199537   24.791946   90.507500
H   95.246994   58.096794   12.607100
H   19.975664   10.391416   46.839973
H   65.070061   62.532574   25.279800
H   96.386337   16.672888   72.739143
H   66.896561   30.328396   66.583344
H    1.488175   39.532181   76.642990
H   79.950241    5.400453   62.708366
H   20.064396   30.953014   43.312386
H    2.528078   24.507532   83.964020
H   39.370949   42.418922   71.883575
H   53.921799   27.996389   17.253372
H   24.437704   56.769958   47.265503
H   25.190355   21.934082   42.772743
H   85.729607   66.079887   77.141533
H   60.341625    4.649703   44.601940
