100
TIME:    1.112, STEP:  1112
H   42.121986   20.045143   98.127945
H   70.337929   65.037682   48.144833
H   98.870148   53.905590   10.283165
H   81.663254   86.835045   79.211418
H   85.210968   61.889229   35.553612
H   10.772835    0.003398   88.870659
H   94.690987   36.425419   77.412621
H   32.485291   84.804062    6.093239
H   26.292915   79.379074   30.090250
H   44.451332   32.350029   51.236244
H   96.819504   10.986157   32.636299
H   13.397259   79.429604   13.775782
H   72.527069   94.429680   14.605437
H    0.022295    1.648743   41.864231
H   94.026466   70.696136   97.318771
H   56.813293   14.472614   40.734848
H   34.663383   55.535324   74.600349
H   24.907150   40.624207   60.995407
H   62.579910   25.002779   21.947435
H   62.556610   82.200058   92.042809
H   98.288986   45.514725   27.063011
H   68.973625   45.567650   24.570324
H   70.897224   85.578392    0.533533
H   15.724716   50.018436   24.487473
H   89.812981   97.984322   44.767014
H   41.560169   94.475754   84.945023
H   66.190796   96.251907   22.032614
H   38.713646    8.343783    3.529052
H   35.350479   49.981144    4.608131
H   43.631817   63.317917   71.789482
H   59.844669   21.762625   21.417740
H   35.969425   21.789757   96.320686
H   48.686039   87.123375   97.974693
H   25.086632   71.814583   24.904108
H   53.131325   74.861427   92.442261
H   69.238922   71.837723   16.818098
H   86.454185   63.812355   96.086678
H   18.030838   38.601406    0.913136
H    0.727976   56.770073   35.547096
H   58.454681    8.081131   25.523573
H   59.247253   94.337929   68.542770
H   31.680962   61.766930   55.043720
H   20.819143   70.168274   81.793800
H    8.351007   31.406775   89.459480
H   60.196800   88.017105   51.266151
H   63.741146   84.126472   87.687233
H   47.821766   85.726852   37.125191
H   56.298801    6.832506   37.382168
H   97.537102   40.353058    0.114806
H   49.211987   47.674747    5.890970
H   43.459782   62.287163   65.141617
H   59.173851   60.554585    1.060043
H   31.946505   28.456482   38.286514
H   50.939480   89.061317   80.886429
H   52.234360   55.989460    9.842196
H   94.957596   11.363287   54.771698
H   66.746307   57.460732   61.747902
H   43.256531   71.872948   84.912430
H   77.977608   85.752869   26.114159
H   85.638184   13.259306   31.981651
H   29.846926   26.858620   27.695602
H   59.444092   17.595016   45.041145
H   49.659752   31.323944   57.270607
H   19.397902   47.843491   96.947762
H   76.460442   72.031303   99.119240
H   33.033272   86.992317   11.935600
H   98.350266   86.807281   20.749916
H    3.552245   81.133286   19.362631
H   12.323154   69.885101   90.489388
H   52.911705    4.072802   99.391571
H   86.720711   19.740591   48.810734
H   82.277359   14.620533   38.036987
H   34.487839   63.300411   33.235401
H    5.715842   79.010681   37.119133
H   15.786286   30.225943   85.694756
H   51.949200   78.842064   21.106495
H   67.918236   30.166048   10.710506
H   84.224106   78.010506   75.852432
H   14.852877   50.244968   30.087654
H   44.991013   48.392960   25.121277
H   32.642910   40.785809   46.449917
H   24.757050   51.489761   93.792313
H   88.156517   25.816843   35.812290
H   26.665304    7.316872   61.861122
H   98.183685   79.328247   39.956459
H   25.698193   49.901348   19.004097
H   41.422691   22.501472   76.567505
H   73.856171   16.265072   84.182747
H   78.759468   32.257195   19.102135
H   68.021927   63.526749   63.966564
H   69.530159   33.476864   56.945141
H   60.563694   79.139275   54.709465
H   56.631828   60.948151    4.941947
H   54.707527   80.684288    1.795620
H   37.367161   50.124062   41.638420
H   85.768204   51.819084   10.012756
H   74.337112   31.495680   73.236877
H   10.948035   25.705688   38.244354
H   55.738884   41.643688   51.903515
H    8.300400   50.141445   90.584175
