100
TIME:    1.499, STEP:  1499
H   15.951260   84.555435   97.773636
H   59.572838   86.018684   72.556725
H    5.521193   81.748375    5.739053
H   81.728210   70.891136   57.999279
H   81.744644   92.908989   25.060158
H    4.771526   99.584114   27.196440
H   74.406792   62.558666    7.676609
H    2.067856   18.284946   70.561562
H   16.779716   42.170715    5.729712
H   33.875206   37.906776   66.391350
H   60.821701   26.557804   95.358414
H   98.625839   98.828026   86.228905
H   47.910423   71.015755   76.140068
H   80.860085    0.455625   71.315437
H   98.732872   36.129765   78.717545
H   41.253220   80.623039    8.610995
H    3.550148   81.128250    9.836061
H   33.177315   21.804489   47.578903
H   68.608376   41.238991   42.334972
H   52.131065   73.980087   18.391489
H   75.323853    6.986575   16.559223
H    6.081716   46.078445   91.617653
H   65.730217   82.430946   89.461334
H   79.768166   54.659885   95.744919
H   75.971306   67.289345   47.622154
H   39.785671   82.942993   48.670929
H   32.818024   80.166275   29.712263
H    6.061090   26.407955   16.320963
H   43.765320   85.093170   86.314262
H   58.471462   53.739761    2.555214
H   75.068153   56.467636   90.794586
H   60.404942   11.098142   60.494133
H   75.945877   58.808174   32.838715
H   41.437996   36.348244    8.601126
H   43.511833   45.607307   16.007729
H    2.886589    2.237564   15.486409
H   23.572952   49.639992   26.580511
H    2.036091   31.518177   28.221821
H   83.331314   48.508766   98.454269
H   22.004728   71.852531   55.973171
H   32.801033    7.617567   77.660324
H   96.899597   79.134361   73.225677
H   24.152601   72.488998    9.748120
H   83.638329   37.893448   27.298624
H   26.628731   72.746384   84.383377
H   58.748341   91.507912   89.258003
H   51.908131    6.602376   40.432076
H   56.319469   10.817007   61.327557
H    8.849278    8.302849   84.678726
H   57.328617   53.565136   78.822350
H   43.430256   24.924990   69.222076
H   77.981758   24.642710   75.655960
H   39.974556   30.700439   15.809620
H   41.978413   82.748711   97.964127
H   21.424232   89.915253   13.126198
H   95.441818   10.956570   41.597305
H   91.282211   46.294090   98.554710
H   14.438532   35.325966   74.944534
H    8.500542    2.104347   96.404037
H   60.098858   43.006504   20.974449
H   54.258953    8.862378   97.522606
H   45.708710   13.992462   27.529419
H   75.909760    4.932389   30.721046
H   45.973335   49.948677   86.442497
H   91.819740   41.121555   35.159946
H    9.259342   67.753334   34.817928
H   67.300980    0.188330   39.434704
H   76.819527    3.265981   37.863468
H   31.612190   42.077744   66.219215
H   60.750793   23.538034   98.576660
H   74.432091   93.408409   44.169285
H   50.367184    1.776091   66.372612
H    9.253796   44.158863   23.311794
H   97.199059   54.520874   14.118568
H   34.444885   30.776598   15.032207
H   61.099232    3.643965   95.066338
H    3.054032   96.623520   17.557970
H    2.406077   52.705612   97.223175
H   33.403908   49.111179   34.403664
H   26.011856   27.314852   91.781075
H   40.216267   44.789501   69.580391
H   53.795261   54.017166   61.432083
H   12.644301   32.275665   72.672241
H   53.288677   40.432964   26.512886
H   79.340347   55.121948    2.441292
H   16.790272   64.117973   45.878441
H   67.269539   94.363403   95.021103
H   80.086105   85.281143   80.161339
H   86.790474   10.710574   15.935513
H   33.806473   47.603508   77.802330
H   85.367775   54.372242   65.117874
H   89.197777    8.245356   62.082047
H   81.462990   72.545090   34.882126
H   92.111488    4.157564   27.888920
H   30.676331   15.457870   50.531578
H   17.732880   36.536552   90.023483
H   43.618515   53.704952   50.980362
H   12.368962   29.000763   32.052803
H   37.303001   43.311893   19.487186
H   32.334366   40.200123   53.310860
