100
TIME:    0.447, STEP:   447
H   87.093910   81.029182   98.736771
H   88.836082   28.980343    6.197041
H   87.444519    6.063151   18.091354
H   81.551636   14.233515   15.661313
H   91.167313    8.586541   53.584999
H   21.084820    0.727146   23.013205
H   29.543663   91.520760   25.408754
H   84.752975   27.273273   67.152916
H   42.639885   43.316223   71.951012
H   62.624779   22.804058   25.193727
H   58.676178   84.228638   96.692421
H   38.780216   46.096397   61.111000
H   14.829083   34.663391   80.700462
H   32.949009    3.699063   91.256493
H   85.939232   30.095667   29.285055
H   83.550888   72.640083   95.935043
H   88.128426   11.557816   14.053348
H   10.696618   72.962997   84.049606
H   52.224800   97.104050   86.912582
H   80.549507   96.159882   46.683266
H   37.750931   11.716629   45.110313
H    5.209064   44.689926   81.194649
H   79.775932   90.986794   19.560841
H   77.510376   42.042820   73.877441
H   13.596518   50.724056   39.859390
H   44.609371   14.290477   47.275818
H   23.533087   23.895378    8.836317
H   94.824791   77.303635   81.550095
H   20.890869   89.647545   36.041687
H   18.133547   79.776505   18.923748
H   33.685459   62.127312   74.040062
H   93.981323   40.161072   57.883049
H    1.843226   35.777122   38.066246
H   96.988609   32.757721   52.919594
H   69.660942   25.130539   51.946716
H   11.419873   19.599874   19.106268
H   22.672462   88.165382   43.687084
H   45.514244   50.772846   53.983982
H   30.624382   70.965858   99.283264
H   21.091373   70.337303   73.203911
H    4.695034   71.517113   52.872051
H   91.447350   31.919252   23.800817
H   15.091310   66.180466   33.760651
H   50.815186   20.262728   24.437191
H   17.881886   14.255464   94.358093
H   72.242531   71.607231   85.071205
H   40.799976   49.854870   31.442816
H   56.263287   99.985596   96.235794
H   78.095268   95.429306   26.642565
H   35.264805   37.553020   52.400208
H   43.510517   26.488863   58.129978
H   26.855757   22.260349   44.717834
H   18.151529   24.600586   76.909737
H   66.336929   99.908562   51.541035
H    5.173279   97.690842    4.199142
H   94.125534   12.062168   77.409866
H   24.589874   76.648888   98.500755
H   92.774353   34.673256    2.040886
H   25.530998   57.655563   77.167664
H   29.521324   62.146896   50.895836
H   87.897507   57.781891   79.543701
H   83.046234   23.784744   75.130478
H    4.552065   76.671349    2.892001
H   73.734810   44.226051   15.003660
H   50.065170   25.142689   37.189323
H   73.885475   20.051411   72.615990
H   51.705193   63.814007   88.642990
H   49.488487   43.101974   87.571785
H   79.181206   17.667747   32.197407
H   39.441437   70.627586    0.790791
H    7.837539   64.990761   56.786350
H   37.109936   36.690544   89.348854
H   77.846375   96.197182   50.287594
H   20.352135   21.092321   76.642067
H   83.723190   29.279726   35.283985
H   36.226276   36.220963   65.850937
H    7.539301   87.801628   98.943420
H   52.981201   21.492149   39.126659
H   82.978645   52.193180   22.672665
H   77.603775   84.610130   82.411774
H   19.629261   33.906078    6.705063
H   74.862511   47.146805   49.401802
H   46.078678   14.718312   72.474426
H   80.919586   50.411961   22.601631
H   30.564951   20.923286    4.420878
H   41.005085   25.472897   72.824257
H   97.008827   70.852379   44.857830
H   63.150986   69.506126   91.092918
H   64.959419   69.283943   24.543514
H   26.815334   90.893372   40.191921
H   42.315647   97.568893   42.901562
H   11.360310   29.124392   42.040817
H   13.964367   41.024330   53.496056
H   90.431770   40.346611   56.956524
H   48.863819    9.689442   26.357834
H   30.841980   78.079765   44.360893
H   27.121382   93.332954   11.481562
H    8.506391   20.043610   48.883583
H   87.418114   38.777134    7.609351
H   67.001694   67.223122   54.633652
