100
TIME:    6.220, STEP:  6220
H   96.689529   51.616447   93.451431
H   28.693336   41.917126   70.297523
H   86.680786   21.395496   50.331150
H   82.520615   76.386017   99.222656
H   39.459076   71.317856   97.056366
H   31.564861   94.469505   94.733543
H   26.980465   81.342079   76.865181
H   31.006561   26.711117   37.094280
H    0.728410   88.265671    8.559499
H    4.869661    5.693762   51.255894
H   21.685776   16.517477   40.607590
H   18.440071   35.466923   50.182396
H   47.155746   85.454399    6.971123
H   47.103340   85.904091   30.584881
H   56.154121   14.431763   51.782009
H   51.431458   67.705055   16.726562
H   23.931831   93.375984   39.619484
H   34.078846   92.174011   83.907753
H   42.144619   39.290565   91.056396
H   24.940010   73.722206   39.819115
H   95.173111   36.996891   88.421715
H   58.697800   52.341125   89.587845
H    2.696498   44.035362   54.389236
H   41.130344   11.237520   45.122402
H    7.121963   92.882187   82.475990
H   18.192053   42.781204    5.516879
H   25.720982   83.919388   23.381041
H    7.716683   46.768272   72.374741
H   46.418999   13.419228   63.149323
H   39.494923   36.894951   77.860916
H   60.853584   79.814659   17.272331
H   58.491825   80.659027   23.447472
H    8.485052   13.397676   58.143677
H   40.912086    3.696892    9.712980
H   26.157654   88.728798    3.479751
H   13.331749   72.605751   99.870491
H   76.377449   76.745239   98.577126
H    6.909607   45.125500   61.368397
H   82.524414   45.892693   41.547798
H   77.338470   29.887466   27.410719
H   10.158981   69.604317   88.886208
H   76.026215   65.994873   97.502251
H   64.816620    0.799728   50.750626
H   82.175430   17.045309   88.894493
H   17.117184   86.482651   88.372177
H   97.836693   81.553818    8.430639
H   90.328415   63.102798   85.171043
H   56.571598   59.433960   53.436268
H   46.845306   17.309906   96.354874
H   56.331646   25.404158   48.629936
H   43.074497   69.142609   18.995491
H    7.413187   86.570068   65.731850
H   37.894062   58.074402   41.621105
H   32.650795    5.715383    6.288371
H   45.549583    3.695507   53.253452
H    1.342762    5.990887   80.883316
H   90.573204   10.071225   47.561256
H   62.901520   89.485023   53.342880
H   80.834747    1.578910   33.972984
H   48.562195    5.877160   86.698997
H   52.063221   89.313126   29.435871
H   78.157967   70.047195   13.917729
H   96.335899   82.841225    6.946381
H   70.156967   75.646088   58.269535
H   79.206085   64.064316   74.810417
H   19.242119   33.058342   13.958718
H   88.525925   63.401226   67.363785
H   50.707863   73.265602   63.554569
H   66.907753    2.856796   70.126221
H   56.399063   60.991661   88.635590
H   24.519844   72.192215   87.535530
H   61.098675   45.095367   12.020686
H    1.435056   10.640656    2.264856
H   93.284172   55.754375   33.581627
H   62.060482   37.508755   72.916153
H   72.704689    6.215965   77.401733
H   31.691971   87.443748    1.054130
H   24.207241   44.010078   57.948479
H   59.782856   35.248623   87.078270
H   94.490829   70.186745   85.062675
H   32.588158   93.630417   51.743626
H    8.041130   84.808350   66.638054
H   11.303056   11.138896   22.304535
H   78.075096   44.418236   95.316704
H   49.467094   59.821854   44.793091
H    8.135105   37.524895   73.718842
H   82.574455   51.108116   20.137091
H   56.063713    7.342634   31.086075
H   84.765244   47.852257   77.319221
H   16.406874   53.369778   46.566315
H   78.570671    9.294373   64.816818
H   38.515911   63.282730   52.040031
H   84.167542   14.149426    0.006729
H   48.405903   90.533394   46.204010
H   49.052345   92.579453   59.014927
H    7.668131   50.110260   46.177933
H   68.888023   24.632998   79.471313
H   26.271288   94.224716   54.013588
H   12.406516   63.662273   24.046783
H   25.559519   19.020000   98.547569
