100
TIME:    2.897, STEP:  2897
H   21.409931   56.351646   96.493729
H   20.684990   61.817108   60.741871
H   29.551588   82.326080   89.332146
H   81.962860   13.293577   81.369202
H   69.222885    4.964826   87.155640
H   83.097054   98.069557   65.646385
H    1.139428   56.958076   17.002113
H   92.187805   39.228977   42.201397
H   82.414146    7.758656   17.730827
H   95.674446   57.979988   21.132669
H   30.783142   82.809723   60.694920
H   45.271294   68.902344   86.717751
H   58.983002   86.434738   37.190804
H   11.638604   96.146492   77.703453
H   15.738758   11.255729   11.515532
H   85.041916   58.346893   92.564796
H   91.147560   73.583878   37.113689
H   63.052483   53.819572   99.109558
H   90.388130   99.884216   15.988291
H   14.469795   44.293324   13.573816
H   92.364639   67.812653   78.612320
H   40.118561   47.929794   72.571976
H   47.064903   71.061104   49.464233
H   49.878830   71.426666   91.916862
H   25.970242   56.413605   57.936073
H   33.375469   41.287830   17.635874
H   12.266888   22.051699   57.454250
H   88.101494   91.661888   62.533619
H   74.163116   11.930676   20.229338
H   12.077594   19.139603   13.691887
H   30.069681   81.834885   80.177528
H   48.675484   72.468849   31.074242
H   74.419037   56.523827   58.781593
H    0.505737    8.230005   49.704590
H    8.759341   39.929230    1.136745
H   24.437439   12.058878   10.681424
H   57.658287   98.440414   36.737484
H   44.252220    5.930807   26.874889
H   22.788841   18.296164   63.571381
H   90.328430   40.975899   65.965309
H   37.261898   55.584789   10.598199
H   71.255302   41.877754   38.904175
H   36.194393   80.872391   10.727334
H   94.366592   61.326416   63.986290
H    5.362700   17.591358    4.014678
H   40.712315   18.172626   94.932259
H   64.367477   82.386078   53.269104
H   56.394131   25.210630   47.827858
H   49.710320   92.520439   28.911016
H   86.640923   74.838158   81.044342
H   43.323597   89.956558   83.962341
H   45.920994   94.918991   83.879265
H   68.973289   38.806519   34.615913
H    9.607426   59.943130   59.652924
H   10.129045   12.469512   24.988585
H   97.191025    9.487343   94.006088
H   79.908562    5.955016   31.516350
H   10.339837    3.301417   38.936478
H   18.757393   61.174160   89.079048
H   67.845459   50.461803   81.213020
H   42.446022   43.847492   88.523056
H   96.094414    0.977406   64.276535
H   70.738716    9.596764   34.814499
H   41.971359   57.553459   48.488888
H   47.309879   29.465115   65.354134
H   23.377754   98.254494   17.477989
H   55.136940   48.518337    6.928930
H   80.250084   83.219360    4.695952
H    1.286925   41.626381   78.538246
H   89.078186   93.853096   95.632874
H   30.040405   98.287407   27.397816
H   35.096428   55.379349   68.727600
H   18.101801   75.008018   87.467522
H   66.438622   66.052948   31.031227
H    1.848474   32.767841   21.010345
H   94.143105   93.243034    0.998886
H   29.983442   75.454727   42.284626
H   68.086655   61.294216   74.431305
H    0.435781   45.009327   50.003380
H   57.451027   51.177967   71.342087
H   67.572891   59.252453   53.135441
H   58.690254   63.147171   44.532448
H    1.092189   55.612640    5.824853
H   49.458706   60.061615   98.821320
H   11.269176   67.676682   66.920784
H   84.616699   15.465233   42.959759
H   60.638802   92.717415   61.683456
H    2.590529   73.353622   65.615578
H   15.803545   32.871284    4.498600
H   10.204411   90.084183   27.779053
H   42.579803   29.861858   94.641068
H   92.639740   13.377312   88.724678
H   71.157944   14.440535   43.033897
H   27.233707   88.957253   22.148872
H    6.502166   90.233673   82.657249
H   33.201935   81.332222   17.815384
H   32.651718   33.933300   70.580421
H   17.501143   40.903900    9.681856
H   70.707085   49.338123    2.382916
H   19.155313    4.293165   18.662062
