200
TIME:    0.287, STEP:   287
H   10.915386   62.319012   16.143248
H   28.383198   33.564312   91.805191
H   17.152578   71.195335   47.663200
H   19.426809   77.523109   43.270657
H   14.711132   84.920456   52.982754
H   88.089600   51.539341   64.158134
H    4.040168   55.270782   50.561085
H    3.941870   90.915955   23.404030
H   89.337204   86.801613   46.572853
H    9.206707   74.240532   94.218590
H   13.831901   95.598213   94.446915
H   30.972153   43.277340   14.981752
H   12.327731   88.567711   59.365379
H    2.182091   53.405231   44.530605
H   17.352676   72.306396   42.862949
H   27.930428   24.029846   53.309116
H   86.418427    9.919741   13.150126
H   35.446095   85.426460   42.683617
H   66.589195   28.000357   43.175716
H   90.205780   79.059227   35.648769
H   58.649124   79.104454   23.687191
H   88.982689   50.610863   68.763496
H   93.597778   62.199730   48.008469
H    9.603744   88.487686   91.438705
H    5.289323   14.594275   43.733265
H   18.622187   64.422005    5.404249
H   99.805840   59.739826   50.971588
H   95.588898   72.068283    0.854940
H   13.048142   55.101143   38.063152
H   90.925545   22.023415   97.000092
H   13.300130   53.412846   16.252275
H   31.071373   64.607895   94.760269
H   25.987671    9.996873   73.753242
H   94.871025   63.629196   39.111809
H   45.732960   87.858932   33.861584
H   31.525990   48.850330   80.015427
H   87.613449   73.414574   86.307777
H   30.590097   45.971085   13.054232
H   51.330772   44.717613   45.476360
H   89.632011   39.495213   61.860443
H   80.518295    3.028280    3.084312
H   15.678698   42.121326   38.437511
H   75.855606   86.702240   52.073498
H   37.176559   65.516624   20.429276
H   30.382824   77.729118   46.060005
H   40.398388   12.615331   43.199036
H   80.859848   23.909550   97.209572
H   88.971588   65.549889   45.958023
H   88.898018   26.968578   61.200218
H   60.435471   18.013605    3.723980
H   77.090179   69.901230   26.006081
H   19.341444   36.506939   64.552208
H   53.444172   93.077194    8.543105
H   21.707090   83.175537   82.399170
H   75.209488   75.339668   89.253326
H    4.703148   71.192200   80.187256
H    5.296352   16.923317   49.150425
H   67.922165   59.671993    4.455148
H   27.189415   75.385391    8.263233
H   42.016251   95.725258   66.125389
H   50.267300   14.459423   40.863316
H   90.781151   16.536222   49.426376
H   72.742149   26.180107   83.299271
H   25.264803   65.219391    4.716871
H   72.103905   76.779739   19.851509
H   36.896053   18.387112   33.708115
H   84.419533   22.170599   86.806160
H   97.078224   91.556786   88.202072
H   18.194283    6.488385   61.384918
H   44.966415   42.449165   50.980083
H   58.444546   77.405037   74.538528
H   30.819574   22.586430   44.435829
H   78.985489   26.475643   97.921944
H    9.396551    7.931617   61.940796
H   79.717331    1.632401   65.402779
H   54.501740   17.417267   62.570347
H   95.228928   31.699896   71.480766
H   24.814417    6.825783   46.360374
H   11.887886   31.787453   33.897495
H   67.567894   90.404823   92.032684
H   45.362888   29.307701    0.435979
H   28.703054   67.745071   86.404259
H   10.816343   14.181851   88.904556
H   23.141399   63.396477   95.383392
H   37.234539   99.820847   56.450245
H   25.991365   84.129868   26.804432
H   37.961704    2.882047    1.879072
H   74.940636   16.795094   13.214927
H   67.125481   72.167564   77.337372
H   23.208721   88.153824   54.348431
H   39.272594   35.298531   80.545433
H   83.728043   88.947830   99.393387
H   49.492401   16.332026   94.391243
H   57.920303   92.745087   70.395203
H   26.315840   56.290436   69.897278
H   67.325691   28.760120   26.851833
H   79.943153   12.653543    0.353412
H    5.602634   29.169050   49.038570
H   35.952919   69.307213   53.047810
H   68.021637   98.691162   27.261881
H   11.963188   81.725891   71.152962
H   92.320030   77.367638   65.605347
H   24.153662   35.452347   31.159674
H   24.134338   68.026260   92.028786
H   25.276436   26.855076   26.611328
H   89.283783   24.471775   41.690334
H   67.884735   30.680372   56.040497
H   64.474373   36.078938   16.924225
H   73.990997   39.496380    1.405279
H    5.876541   27.405081    5.767294
H   47.812916   95.658356    0.828919
H   87.881172   64.527283   91.046524
H   56.277729   80.820061   92.913055
H   63.064964   18.384085   73.741974
H   62.281822   83.925705   25.124708
H   12.120396    4.422331   81.054680
H   30.642544    9.104517   84.728012
H   40.532658   29.309868   33.039024
H   20.647270   59.478191   81.216766
H   72.022964   47.612911   51.096043
H   41.045113   22.071758   85.979721
H   16.261139   26.366634   49.570675
H   33.369514   19.840328   25.423405
H    3.384836   65.627396   15.807031
H   75.510017    7.788405   91.258682
H   49.444256   63.638481   24.623905
H   94.218376   49.409378   69.239624
H   74.400620   87.938591   35.399525
H   93.046112   50.782379   83.819183
H   70.023262   23.926577   67.302322
H   50.506210   83.507538    5.207478
H   79.895981   86.517532   10.435361
H   92.284279   84.881409   97.724770
H   98.615959   14.208014   50.285664
H    6.747921    0.520299   54.257149
H   61.106270    1.566530   82.989182
H   68.970528   86.684288   57.678406
H   91.619240   62.753456   82.455750
H   47.541733   44.990913   71.538971
H   43.473404    6.835752   94.151535
H   52.944492   61.686512   16.428146
H   55.074615   42.438877   47.342537
H   53.494617   57.626068   97.798958
H   55.559441   24.826315   78.903267
H   42.511158   68.208321   50.605427
H   47.662220   62.785587   27.595173
H   45.842857   96.571968   46.945366
H   41.369080   71.669174   68.555321
H   66.441742   62.830013   97.477226
H   10.960179   89.187927   88.238091
H   74.563576   62.108150   50.989380
H   35.765842    5.809238   46.679455
H   78.359154   30.081181    1.814596
H   11.152331    2.221560   74.791077
H   15.476265   55.120270   61.603588
H   64.897339   43.645443   55.506939
H   59.803234   62.292992   81.312302
H   46.714283   35.905800   10.825247
H   10.230718    1.557237    0.861983
H   63.152740   55.026123   80.044739
H   54.417622   82.499939   82.166229
H   41.397396   22.812735   35.136806
H   67.242470   32.520832   37.212509
H   12.999860   21.560379   69.187866
H   58.504166   23.683153   10.286353
H   12.723462   62.943832   62.044899
H   74.090515   96.806770   52.719948
H   23.673271   33.070965   49.956226
H   94.711594   28.017365   36.745953
H   28.617809   10.105032   89.874084
H   78.467102    6.192758   35.972130
H   44.539284   63.701504   57.602444
H   38.581051   75.434708   89.101578
H   70.646294   73.417618   75.332626
H   69.253387   94.682983   97.021484
H    2.358476   47.914726   23.331837
H   34.934914   54.389362   88.874069
H    2.146550    9.245682   65.481186
H   74.399605   20.286966   68.585136
H   84.064774   54.959267   87.048019
H   80.559731   86.873672   40.626522
H   20.175667   30.163418   71.331978
H   63.471420   90.116989    7.000257
H   52.504311   25.307384   78.919365
H   86.130760   86.295845   78.203201
H    0.244371   36.620361   84.189430
H   32.988556    3.719488    0.306500
H   88.163063   69.215401   27.171091
H    5.257292   61.382996   67.080566
H   50.468250   58.017643   66.296829
H   50.065529   29.469357   78.965828
H   47.267620   86.206467   24.025736
H    5.144459   18.642172   58.882854
H   34.282413   65.406868   34.260475
H   83.281708   52.156021   21.662542
H   75.442886   10.498775   28.922449
H    9.773694   86.840981    5.053144
H   27.543564   96.472076   45.641216
H   11.286554   11.743404   75.915062
H    7.517533   33.400459   97.095818
