100
TIME:    4.801, STEP:  4801
H   92.650795   81.745216   94.750565
H   67.883400   65.024612   80.824646
H   62.279495   19.307053   66.990593
H   82.282440   34.849968   77.004646
H   52.168930   57.578827   35.528931
H   53.574345   96.006813   54.205875
H    1.350694   85.524109   65.897461
H   42.537163    3.950160   67.382927
H   35.610191   24.696930   97.880440
H   43.640999   85.318611   95.690338
H   53.677704   59.421177   77.292389
H   72.601387   64.339973   51.188377
H   37.705307   71.264183   47.970459
H   17.364052   90.277840   22.598063
H   38.898888   41.182465   19.992146
H    8.485729   91.815933   34.516541
H   38.039345   99.520538   10.442320
H    3.734169   61.215839   33.098095
H   20.045597   79.761642   16.298182
H   63.167007    3.861387   43.207008
H   79.378578   78.262909   26.937214
H   22.656891   50.457382   10.428741
H   21.643761   55.575996   94.987152
H   72.976562   94.262115   50.509567
H   57.872589    5.415474   71.996315
H   24.660654   84.727036   38.953899
H   48.083649   42.905567   95.225319
H   27.447681   80.534164   25.467134
H   15.564544   84.676445   30.225616
H   85.085327   72.014854   65.054298
H    5.003763   52.569942   29.539101
H   68.895302   19.866539   54.811424
H    8.532772   17.218309   30.308950
H   80.954910   33.739655   69.492744
H   61.431519   96.001175   17.076210
H   89.980652   61.463627    4.333332
H   40.277367   28.713509   86.765427
H   65.555809   71.094383   61.233479
H   42.421543   76.812065   79.059860
H   10.993258   62.730675   15.766638
H    7.137759   20.918051   55.455181
H    0.133941   27.328867   28.354853
H   52.594662   92.290115   48.254662
H   72.782715   93.227539   50.152077
H   40.204464   42.467819   66.945091
H   16.148228   54.488544    2.664434
H   79.242477   85.932152   71.551796
H   56.495815   44.818710   65.636604
H    5.370390   34.830723   52.961571
H   26.569035    3.805640   47.875275
H   43.178333    6.137642    4.037055
H   38.451439   18.242086   58.886459
H    8.458560   49.846558   24.034006
H   65.508537   28.871231   43.670677
H   58.532318   79.338387   41.182339
H   99.573349    7.483537   29.189438
H    0.615395   51.015968   12.602585
H   68.563126   23.492552   89.891830
H   68.920418   41.623520   42.907867
H   42.201847   96.808121   27.058723
H   62.551483   55.301991   40.071808
H   28.518129   83.255051   78.124924
H   99.999748   79.671310    4.251488
H   72.716530   67.916245   96.790451
H   22.881628   77.396729   42.665592
H    6.412800    3.601147   30.055914
H    2.374853   14.346259   98.853745
H   48.727913   92.111038   95.718163
H   96.182297    4.817078   59.123581
H   27.654921   89.618652   91.623596
H   69.579018   68.739914    4.555377
H   78.102264   92.188950    8.128097
H   93.956711   80.828926   38.651382
H   24.519917   45.563122   17.894352
H   93.647224   35.484272   65.346405
H   39.157379   15.271376   72.882217
H    2.854218   10.427185   75.956749
H   57.540035   36.794697   79.581535
H   91.738914   39.416676   71.250496
H   64.075073   47.481487    7.310816
H    4.820119   78.950211   66.933434
H    1.549340   75.581741   85.320580
H   21.548235   87.408997   87.166733
H   80.450546   22.991098   24.919998
H   18.560286   48.580292   82.349358
H   40.797482   85.403526   75.179169
H   87.802650   54.281113   52.473770
H   33.234192   20.914858   45.814957
H   55.318222   26.859888   88.924812
H   41.865841   11.748322   95.842331
H   20.499413   32.672352   34.850140
H   33.524281   56.560242   25.007231
H   93.207024   71.574760   90.273239
H   11.262156    4.448317   50.524708
H   73.584312   19.684967   26.407608
H   90.464478    6.145812   19.471291
H   81.521721   43.200100   61.079071
H   24.488325   57.115326   79.208977
H   80.004608   57.545521   42.903358
H   37.419262   55.430141   35.244701
