200
TIME:    0.532, STEP:   532
H   18.443754   61.505909   20.332596
H   30.566893   37.141029    1.751270
H   12.017596   81.918945   59.730766
H   27.685410   80.386726   36.863968
H   12.109904   91.129944   49.460243
H   80.119324   44.889656   56.906548
H    7.589782   55.096947   55.303249
H    9.432183    1.495514   14.707604
H   99.286964   83.128632   40.596081
H    0.582289   70.808678   84.554817
H   22.371408    0.831935    2.189141
H   31.985260   49.816742   26.655405
H   18.340954   96.698738   49.324028
H   90.602211   54.438900   56.336483
H    5.524083   74.192421   42.260132
H   20.789143   13.935223   48.023949
H   97.943924   21.394302    1.254993
H   29.628395   97.204300   38.321835
H   74.740784   19.130527   46.782341
H   90.985237   75.694664   26.151356
H   61.589378   91.334641   12.462709
H   83.528358   59.975563   59.322159
H   86.261162   60.418381   42.129829
H   14.793115   90.721382   90.670464
H   15.938369   24.447805   34.991009
H   18.419378   75.295151   97.312477
H    4.550468   64.655830   60.822281
H    1.211562   82.175056    1.499607
H   23.367069   47.654243   36.628540
H   79.854263   28.586649   88.525131
H   12.980263   63.648594   16.551815
H   26.616131   70.350082    0.792222
H   20.067909   15.268723   76.745834
H   86.762428   63.896492   43.394150
H   33.975681   77.735336   31.997988
H   23.523003   43.264221   82.824837
H   94.645386   68.126602   88.147072
H   18.471596   52.308613    2.038548
H   42.263275   35.944515   50.922279
H   87.282425   38.487713   52.290131
H   80.591194   91.583267   11.216437
H   27.873369   36.983826   31.172806
H   71.444290   81.074074   61.170902
H   36.630753   77.415962   29.191626
H   38.753952   85.204056   54.901329
H   36.950645    6.239250   45.863583
H   85.476776   11.906391    2.581256
H   83.006966   65.546150   37.150345
H   98.373001   17.671169   61.376858
H   51.667980   19.119238   93.359039
H   71.262009   66.800224   16.296513
H    9.975960   40.723858   69.819618
H   60.051788   86.069145   11.745890
H   18.060745   88.345749   86.027290
H   64.839157   69.890945   81.329781
H    1.562422   65.156548   88.209869
H    4.597154   17.850441   46.522327
H   70.598862   65.367447    0.033191
H   22.019670   80.118210   14.188836
H   36.349766   94.349525   61.596313
H   49.473824    9.679407   33.705208
H   95.184196   17.116610   51.304451
H   79.491837   31.255457   75.033661
H   31.200920   65.568932   10.187019
H   76.042313   80.432159   29.869963
H   27.285322   27.905554   38.111954
H   75.267921   17.002724   91.867958
H   95.706230   92.113808   93.052650
H   26.908968    9.799209   58.283913
H   43.556103   46.719357   50.966999
H   58.337067   81.642517   81.091949
H   23.933903   16.146563   42.720837
H   86.761368   30.711254   89.718018
H   17.378317    2.546330   69.073402
H   82.700577    5.598380   53.882889
H   60.694405    8.767732   60.969376
H   94.193390   40.820663   68.015266
H   15.739918   11.287100   37.982613
H   13.750546   42.702663   28.471203
H   63.876186   89.038437   80.413727
H   55.761257   25.166952   96.798615
H   39.476055   63.339222   78.830254
H    9.860480   16.869295   81.736168
H   15.151964   71.407875    3.368492
H   28.510040    2.411620   49.507095
H   32.893799   75.557709   21.704315
H   48.942329    3.392572    2.440761
H   72.903206    7.676447   22.455791
H   74.623245   72.767960   78.222412
H   21.981590   99.135384   51.653042
H   29.002403   37.413532   79.455688
H   82.021461   91.097412    4.739211
H   61.130985   13.568878   87.413513
H   46.934071   83.943016   77.122459
H   32.523888   52.976341   80.101250
H   57.179665   34.237816   15.332425
H   83.266594    4.179465   10.904890
H   98.867516   32.976028   51.358250
H   30.401390   66.852951   53.916054
H   72.281548    2.672160   27.321695
H   22.894194   88.499878   82.689674
H    1.430415   81.074265   64.253914
H   29.232283   26.498583   34.583233
H   35.906883   68.478607    1.758070
H   24.951662   23.635376   34.554501
H   98.983070   12.476641   30.219904
H   79.490608   33.722500   54.900284
H   63.030720   45.485695    7.450439
H   80.217308   36.403786   13.252277
H   13.746814   23.989115    6.966387
H   51.036354   93.529335    1.001294
H   97.718781   70.688171   93.837242
H   52.022491   83.663116   87.583961
H   62.235039   13.102188   67.424072
H   54.105934   94.127808   16.534325
H    2.121814   97.255257   92.107269
H   20.569416   12.554362   87.584152
H   39.289639   41.369022   28.141716
H   29.951689   68.676529   69.108078
H   78.488533   52.502743   60.235504
H   43.602180   23.699833   77.951500
H    5.689895   20.562763   56.777382
H   39.276192    9.507235   32.691372
H   99.775146   56.811134    5.078079
H   68.179008    1.722283   83.155693
H   58.420162   70.341492   19.893423
H   88.128517   50.553329   59.777725
H   69.041618   89.860130   37.468731
H   96.061134   41.913952   78.235878
H   81.898300   22.765335   71.476250
H   60.396156   74.759674   14.570309
H   70.492027   88.947495   16.213062
H   91.484261   96.801308   99.547241
H   86.602600   20.489605   53.301098
H   18.851170   96.090302   42.998947
H   54.580887    1.252095   79.379753
H   69.376144   87.308601   69.874947
H   93.709007   55.103748   78.584633
H   53.945618   48.417160   71.481026
H   43.606117   95.085533   87.343903
H   65.073746   54.481674   24.342346
H   43.795853   49.882973   53.053883
H   45.618736   62.135517   89.535217
H   44.333015   15.957829   82.963173
H   54.027309   60.082901   58.616825
H   56.639061   67.006516   15.861259
H   51.637383   95.499046   45.191120
H   34.679207   62.549339   67.149681
H   72.991425   52.600807   95.041656
H   18.770020   91.862755   79.069656
H   65.927864   66.268997   49.139805
H   46.079163   99.030113   39.001709
H   89.740723   20.920223   93.214218
H   17.628822    7.845170   68.736732
H   25.191441   61.590511   66.035973
H   72.170403   44.252934   63.044495
H   62.367779   69.640610   84.213303
H   50.197540   31.974869   16.565098
H   99.017509    0.634091   91.775856
H   60.405949   45.029633   89.446823
H   56.824219   72.546440   75.652061
H   29.894243   21.543079   33.014328
H   77.788506   21.838833   37.110638
H   21.992979   28.757740   58.705856
H   56.158318   31.996428   12.693651
H   16.944588   55.148327   60.705616
H   69.871727   92.844063   55.317204
H   23.887295   44.217949   60.087299
H   98.040642   27.220617   36.167435
H   39.798439    8.256158   87.115143
H   73.786621    9.106376   35.951569
H   36.075539   54.601295   58.354797
H   43.314804   64.907364   82.207962
H   67.630295   67.553551   81.013962
H   57.866211   92.839951   85.501595
H    9.922681   49.238121   23.566889
H   32.418034   62.042809   99.122902
H    4.317929    9.479332   68.613968
H   68.134041   14.591451   65.719650
H   72.410301   57.587364   90.504173
H   76.086731   95.653313   34.930130
H   25.117369   30.462490   80.276108
H   52.190823   89.860291   11.851669
H   57.839844   25.760723   87.932655
H   89.299057   75.669434   77.193832
H    5.373342   38.687698   85.415627
H   41.519592   99.522865    5.735167
H   76.392700   79.593208   35.743919
H   98.162148   62.475544   69.880630
H   54.923492   56.684902   69.392227
H   61.769535   21.363564   77.216255
H   45.259163   92.864563   20.905104
H   10.586467   24.470810   64.495216
H   30.002161   75.184662   39.197971
H   74.874039   41.212780   20.861122
H   76.041031   11.099957   25.565830
H   11.402236   93.521507   13.322492
H   20.423307   91.602806   38.731712
H    8.019423   12.428934   64.957802
H    4.962217   25.099880   93.692001
