100
TIME:    0.814, STEP:   814
H   62.274818   47.373329   98.400772
H   78.627327   48.879642   29.347044
H   93.750092   32.465923   13.782173
H   81.613235   99.112267   95.544670
H   87.880127   38.003212   43.633842
H   15.393845    0.327719   59.359501
H   10.309355   16.302145   54.108631
H   55.907501   59.022335   33.455322
H   33.618324    8.030619   48.849274
H   52.595222   28.072235   39.566063
H   24.538727   98.995773   61.339989
H   24.771877   64.492317   34.987114
H   91.484009   12.459375   44.223740
H   14.777136    2.567518   19.185474
H   90.402412   97.314972   11.643559
H   68.794952   40.538975   65.471176
H   58.622154   35.828110   47.467690
H   18.538910   55.115875   71.326462
H   57.939575   12.500476    6.248475
H   70.615150   88.465515   71.720757
H   15.972626   75.181549   35.150757
H   40.399525   45.174324   49.945522
H   74.875954   88.002007    9.059950
H   43.412125   46.444401   46.620575
H    0.471394   21.618183   42.568481
H   42.926579    3.355686   12.877252
H   91.886566    8.639306   16.119085
H   63.856941   94.433960   93.679642
H   28.870834   22.944353   18.694038
H   32.204906   70.693344   48.098995
H   48.122196   95.038368   44.998589
H   17.153448   30.022316   23.907997
H   27.694496    8.926443   71.128502
H   12.495502   99.124580   37.458061
H   60.538582   97.387856   74.294708
H   43.329437   48.429150   17.843473
H   57.871479   74.725441   72.605354
H   30.346710   44.055676   79.882790
H   14.125374   63.131493   64.109818
H   86.523598   35.979168    2.077490
H   79.613266   84.111458   61.521214
H   58.463493   48.391579   41.043140
H   18.252295   68.381256   60.268135
H   27.379564   26.412901   60.321541
H   86.046837   99.775955   25.763910
H   67.555351   78.506401   86.510399
H   44.675159   69.652786   34.578804
H   56.282887    3.764326   18.943602
H   88.824821   65.032639   12.002637
H   42.961971   43.138996   26.732719
H   43.482517   91.056786   61.999561
H   44.691277   88.205902   20.623940
H   25.764696   26.728577   55.595123
H   57.839733   93.922188   67.736160
H   75.957809   29.864080    7.313429
H   94.584732   11.676470   64.916321
H   47.854973   66.059334   33.405708
H   65.446472    0.015069   92.587967
H   54.474472   73.161896   48.992695
H    5.303959   90.354156   40.457481
H   11.048147   40.715965   50.929108
H   70.020691   20.368759   58.525627
H   29.445679   51.645058   77.714455
H   98.934700   46.222443    5.038504
H   64.633385   95.830925   71.368172
H   51.339973    1.806808   94.315895
H   22.260057   76.503510    6.361726
H   24.137398   64.090683    5.116508
H   97.470726   91.297485    9.178915
H   46.875404   89.085106    0.019047
H   96.183266   40.017780   52.384769
H    6.849514   24.510597   16.218458
H   53.917679   78.042061   40.876835
H   12.274493   97.867584   54.830162
H    1.418968   29.801924   63.104664
H   44.903439   59.743660   41.157635
H   40.860935   55.993767    5.437553
H   70.223526   97.494911   59.395771
H    0.568244   51.118015   26.764847
H   59.605453   64.623817   50.794312
H   26.811230   37.702862   28.639065
H    2.397718   49.543594   18.711742
H   69.299614   20.843431    7.429344
H    6.164865   81.816628   89.080177
H   12.694159   97.966888   68.844307
H   32.557522   38.954159   98.309746
H   21.519949   44.168495   62.357754
H   69.058960   40.123055   87.279335
H   72.575386   48.849632   21.540527
H   94.367935   75.790237   53.312664
H   57.334782   17.385851   50.651928
H   38.514713   56.726524   49.032387
H   37.511192   52.019882   81.887932
H   25.903803   62.609314   81.702019
H   42.519047   76.816833   34.790459
H   61.154648   63.587029   25.404976
H   97.991226   14.394017   90.374969
H    9.853885   23.168396   43.012009
H   69.934990   40.359127   76.866096
H   89.793594   57.796520   19.286100
