100
TIME:    8.410, STEP:  8410
H   48.587883   50.783958   91.446426
H   68.212784   60.591213    8.382018
H   24.331102   78.953232   24.619362
H   82.888199   86.157829   79.182564
H   19.838266   46.855839   37.674805
H   97.599854   92.096916   11.616134
H   12.202573   29.221346   48.126118
H   58.876877   16.174303   36.015640
H   46.894020   77.705414   70.708725
H   45.053017   37.140141   37.006233
H   17.977310    4.637290   29.656073
H   34.855301   45.240337   94.296516
H    7.471867   52.939522   89.344467
H   38.667870   79.153908   97.243950
H   82.753853   18.810165   46.463264
H   63.375427   76.159569   34.937775
H   47.824898   38.226597   38.983833
H   80.906387   85.608482    7.995027
H   76.252411   31.163189    6.434422
H   65.933090   27.218451   88.924538
H   65.215401   18.974941   28.982740
H   68.655235   55.248383    3.089100
H   73.456581   26.226946   91.729630
H   37.647552   37.436249   82.474533
H   28.793869   19.204872   98.649696
H    7.953457   78.176682   99.463318
H   36.875114   92.882767   66.838425
H   22.930605   48.990070   44.762978
H   94.037865   12.113178   59.626671
H   23.469620   82.691757   51.959259
H   47.042744   76.196175   44.006645
H   96.769951   20.153408   20.708214
H   62.747196   53.166542   55.436172
H   33.445236    2.996447   17.451391
H   71.653999   22.914970   36.723782
H    3.704904   44.137924   92.986641
H   86.427330   96.541756   71.140465
H   16.391907    5.043253   15.912154
H   90.082695   98.179161   29.320534
H   71.064713   24.867037   99.715454
H   60.487503   44.748817   40.480434
H   91.464813   74.582977    9.306581
H   83.663666   13.936893    8.937078
H   42.336674   53.806564    3.020811
H   27.150909    0.079268   75.777519
H   69.566124   23.320412   17.327848
H    7.442430   82.202217    6.194016
H   56.700924   81.990265   88.940712
H   10.864731   35.933746    8.994839
H    2.309668   58.739017   95.504936
H   42.924122   57.712379   42.081757
H   13.854536   83.353546   21.972408
H   83.317024   70.772766   14.432417
H   81.934937   69.990860    2.927142
H   71.178108   95.616699   71.876221
H    4.070404    3.687220    6.330551
H   29.409485   46.879555   55.848457
H   99.830261   82.666328   96.931786
H   53.554470   94.120506   65.851410
H    4.046498   74.209335   24.410179
H   90.209518   87.467407   58.685192
H    0.430571   49.662979   14.828281
H   45.015842   33.400177   56.771515
H   20.539024   87.575867   98.805618
H   66.132462   89.151215   78.755447
H   84.709419   24.187187   43.449192
H   12.818300   39.117672   73.096786
H   99.429367   98.513603   68.249237
H   76.056152   45.497368   32.772263
H    0.827480   71.055557   84.006134
H   54.975239   23.184135   61.269966
H   80.723938   72.354881   72.494797
H   58.643539    2.319173   46.118633
H   45.070370   17.151360    3.460500
H   67.589325   40.698490   38.953419
H   24.474085   46.575432   30.043421
H   30.590591   97.892822   39.894806
H   27.094728    0.815147   78.897034
H   64.801369   28.815899   11.511854
H   87.091393   50.887138   96.392296
H   75.454933   16.287668   82.637146
H   72.375107   99.010605   83.423195
H   49.826195   47.763096   30.869015
H   28.744289   31.821501   95.294243
H   42.833542   22.825054   32.497734
H   57.738201   17.966377   25.799286
H   28.839739   91.876640   24.564552
H   91.284966   32.097237    8.379395
H   30.217205   25.916639   59.407845
H   22.781569   63.268188   24.854731
H   68.194542   27.546764   11.065940
H    0.553735   27.991474   93.772758
H   24.550571   79.859428   69.362793
H   60.058769   23.397816   93.872215
H   11.186577   96.412399    9.339766
H   88.553085   63.630188   33.061653
H   95.056419   50.311302   53.521996
H   22.044069    2.587467   10.049685
H    8.080083   73.118614   40.612133
H   61.587284   62.816502   87.578049
