100
TIME:    6.979, STEP:  6979
H   45.360672   82.013191   92.756546
H    7.733850   83.045860   18.153141
H   99.733047   76.001335   41.419247
H   82.648010   45.116180   57.621304
H   32.660782   32.154964   76.476181
H   19.792347   93.647224   69.900681
H   87.200684   32.593204   36.220043
H   71.350655   92.374481   67.406120
H   82.070732   15.291123   60.784969
H   84.138252   16.593096   80.973824
H   51.085449   47.057682   67.496040
H   89.471283   73.511887   96.156700
H   98.722237   39.554142   31.552910
H    9.523111   83.564644   88.344780
H   65.372932   46.634148   15.283161
H   20.913361    1.320032   53.723145
H   62.897438   43.576862    8.714257
H   50.310207   55.240860   57.596176
H   53.963459   71.132385   31.042660
H    4.493011   57.603168   91.495415
H   50.132965   61.436722   67.818367
H   31.463867   53.348709   24.951935
H   92.562492   37.862465   32.674072
H   70.608986   20.317354   88.752319
H   79.975533   32.690529   88.081398
H   14.700695   20.359882   34.127716
H   60.272884   52.369461   38.442677
H   43.673790   82.195839   97.460098
H   62.922523   82.281624   27.270464
H   68.599030   18.109886   38.198662
H   90.722679   47.875687   57.222740
H    6.415637   59.686268   53.183067
H   61.949612   57.865364   26.520391
H   72.981041   34.138931   77.737411
H    7.267715   31.261787   49.660339
H   79.310341   32.054428   97.484718
H   49.175545   48.949829   58.383213
H   75.536461   31.233585   14.930678
H   50.487759   29.354887   67.995392
H    5.850010   58.833485   87.127853
H   58.286255   95.650932    6.767438
H   12.061937   68.971298   36.250538
H   71.348541    5.352880    5.575235
H   33.710804   29.784872   63.104309
H   51.278687   56.534542   53.322208
H   88.038811   96.030594   11.514193
H   96.258102    4.379238   92.455757
H   56.613583   67.251419    0.398917
H   69.030830   54.448368   66.081039
H   72.264893   36.958279   95.559975
H   43.022381   95.865753   26.995358
H   44.307178   16.139374   15.908580
H   53.639004   62.475342   97.538826
H   15.075989   93.332825   39.779617
H   85.116287   70.211891   59.710094
H    2.288095    5.192492   55.045166
H   38.689831   88.170158   19.748558
H    6.385253   17.807035   33.793442
H   40.695557   33.653004   75.706535
H   98.477699   64.218521   65.111229
H   99.940819   54.014595   70.257309
H   51.219582   62.982529   79.576920
H   47.865307   31.049057   54.899475
H   22.274708   79.780655   37.660397
H    9.330447    3.442683   45.493137
H   72.616486   95.326683   58.836792
H   27.630606   89.644592    4.007677
H   98.278328   16.673777   99.839157
H    4.733271   48.319901   22.521534
H   71.776329   99.164482   87.037354
H    0.416763   20.550659   78.432533
H   98.548851   19.888084   67.607109
H   51.947571   73.099167   82.807434
H   76.572182    7.718972   88.485504
H   98.657463   38.591618   30.454086
H   90.644310   54.862217   26.331617
H    0.624620   21.750202   14.514997
H   59.866436   94.380333   99.862480
H   96.182594   33.019199   95.544289
H   57.268143   28.840851   19.673973
H   47.441330    1.482961   97.108047
H   64.994148   89.730591    3.141668
H   59.313835   23.831579   94.587524
H   30.294037    9.367058   25.993496
H   12.510069   12.343707   71.216621
H   90.667953   65.406876   26.426300
H   33.266422   95.922310   56.329033
H   68.270531   46.607655   23.216499
H    0.516046    5.593105   71.111580
H   49.301815   22.140476   73.697861
H    9.632191   50.276833   80.845505
H   94.674225   20.366833   66.500435
H   32.820728   36.924290   58.701363
H   21.760292   36.580650   97.382309
H   35.930595   24.593155   76.456543
H   70.358368   20.138689    6.974489
H    8.642418   68.190231   35.820938
H   24.806238   31.780689   38.778229
H   76.249657   66.939217   60.473866
H   72.702766   99.543167   25.431004
