100
TIME:    2.007, STEP:  2007
H   81.597321   37.969131   97.308548
H   45.441917   13.560732    4.601166
H   14.253355   18.295586   99.775414
H   81.813477   49.962181   30.152271
H   77.194534   33.627415   11.287075
H   96.894661   99.033760   77.506096
H   47.782871   96.859062   47.402870
H   62.140053   62.231876   23.917664
H    4.292107   93.328430   73.754402
H   19.994009   45.200905   86.281609
H   13.568771   46.998417   46.424809
H   79.239426   24.290987   50.068321
H   15.597470   40.281197   25.649727
H   55.706581   98.889717    9.972973
H    4.912088   90.754150   54.298889
H   20.827888   36.189644   66.443130
H   62.707657   14.723122   56.085976
H   44.033241   97.100060   29.967350
H   76.522621   62.551643   69.097641
H   38.445854   63.190342   52.978523
H   45.178406   56.414944    2.771305
H   54.792118   46.748947   48.363075
H   58.947685   78.299416   74.927338
H   32.569496   60.752537   58.017921
H   57.801872   27.000793   51.369987
H   37.456356   67.804382    1.056544
H   89.012993   59.050373   39.793041
H   63.196045   50.119686   33.112446
H   54.811157   31.182386   62.300224
H   77.950890   41.166885   42.938992
H   95.051430    2.023069   50.596783
H   92.480499   97.062813   13.465996
H   11.727587   21.640442   78.603363
H   62.901802   89.793259   87.199860
H   30.884525    7.206328   46.939949
H   47.055706   42.144596   13.740392
H   72.295776   31.036375   66.609070
H   81.037666   22.220295   64.068474
H   60.494904   37.664467   49.766182
H   74.155846   24.294371   95.940506
H   98.085884   25.048662   89.628586
H   51.243469    1.931706   97.092438
H   28.528303   75.535324   46.440689
H   51.198448   46.408432   76.967331
H   82.562843   52.703281   27.854837
H   52.194477    1.197234   91.319893
H   57.272144   34.007370   44.772896
H   56.346600   16.047308   92.759743
H   23.697210   66.228600   64.416397
H   67.981560   61.297222   43.291897
H   43.391499   75.880501   74.578339
H    2.669970   77.504959   42.306637
H   50.512672   33.645996   86.306480
H   30.215565   74.462395   20.379637
H   80.983139   34.449100   17.436659
H   96.077438   10.422688   24.303787
H   23.487200   31.636070   46.869896
H   76.611664   87.350983   61.860062
H   48.563988   23.569487   57.405762
H   26.577648   82.052719    6.526355
H   86.303513   85.237007   57.913219
H   27.679268    9.263100    4.542861
H   10.365870   70.290886   95.870041
H   80.856934   52.712074   72.652641
H   11.982593    0.547736   82.469498
H   78.052132   42.499062   64.854851
H   26.543516   17.750544   63.960339
H   41.728645   32.320312   62.148808
H   56.932350    5.576096   34.357086
H   71.043518   49.090096   97.506958
H   58.301292   58.844048   38.076633
H    8.481229   84.916550    3.564347
H   76.131332   19.032490   10.285458
H   86.021446   22.372255   83.926582
H   58.935638   31.499422   53.542339
H   73.107185   36.202370   60.882732
H   49.177956   52.594193   26.543856
H   26.272839   19.487440   25.278767
H   57.755135   47.622898   40.069984
H    1.098203   99.647934   48.016304
H   50.157520   50.044994   99.942879
H   91.910248   57.334793   18.953459
H   44.785755   40.755768   21.056583
H   88.233467   83.903175   80.112610
H   54.605423   23.344818   53.196274
H    5.097308   82.775749   81.155357
H    1.197709   57.427673   19.244947
H   88.263901   44.609207   74.877357
H   97.332466   82.425880   11.779758
H   88.892624   26.701683   95.964012
H    6.157336   81.803314   75.845901
H   26.785192   46.450665   71.762856
H   14.057087   87.768967   74.182053
H   41.212261   34.971821   62.139000
H   21.891983   69.955536   62.205284
H   59.691559   16.477262   63.784775
H    3.296470   82.858208   21.765091
H   14.234159   33.326080   23.923466
H   13.104326   45.501682   76.933334
H   63.882828   27.151253    4.382713
