100
TIME:    8.163, STEP:  8163
H   65.291740   73.435173   91.672562
H   75.034531   47.205891   92.808243
H   20.085413   61.182770   27.518604
H   82.846741   96.333916   92.720528
H   22.051565   27.057697   44.372177
H    1.429628   92.364510   87.155373
H   25.147736   12.541987   28.810398
H   78.290588   94.805656   58.695122
H   52.965752    1.453429   86.255524
H   51.799385   33.593586   27.334728
H   40.952652   94.698792   53.447479
H   44.283257   32.859432   11.877995
H   23.222435   67.889435   13.890856
H   50.898018   79.915230   78.448341
H   79.753792   40.873428   58.341019
H   73.306534   97.763023   55.440704
H   67.687111   21.890209   16.498449
H   75.626129   97.627571   16.556633
H   72.404343   20.800541   93.421188
H   72.589005   32.463764   72.107613
H   79.872734   43.565266   35.686192
H   44.975101   54.920486   24.123398
H   76.754387   28.234838   98.796356
H   60.598396   34.481415    0.817929
H   37.627876   38.793839   96.825539
H    9.118176   85.458237   22.707439
H   58.175171    3.149698   61.938038
H   43.771263   37.460941   36.597610
H   88.667152   89.703445   71.302788
H   13.999165   88.804947   32.323181
H   37.320812   54.047073   63.548500
H   81.174156   26.977039   43.574257
H   45.347973   71.238518   33.184464
H   23.008282   25.632362   27.856440
H   77.801109   41.616356   21.695211
H   82.233521   24.790522   93.763039
H   62.735996    5.587702   51.677761
H   26.600971    9.563602   98.482506
H    0.507610    3.560575   53.256844
H   94.330261   47.990959   80.282898
H   77.368500   36.274399   34.661221
H   12.280837   73.614365   96.696587
H   81.537994   12.455236   91.095711
H   58.107723   49.658867   78.869781
H   48.575554    9.823666   54.640579
H   72.754631   18.610203   16.324373
H    5.511460   68.769783    3.821987
H   56.685848   79.446243   73.657738
H    3.645221   56.389565   18.848076
H   97.124268   54.979519   12.775069
H   42.941082   81.558342   39.477432
H    1.849932    6.272658   38.186890
H   78.195061   69.340576   28.777872
H   87.656158   74.019836   92.027664
H   90.844337   73.971786   69.776932
H    3.762766    3.947040   14.739014
H   13.751435   54.006584   32.356773
H   18.222067    5.992370    3.294025
H   34.072918   83.684364   84.812851
H   20.345543   55.224407   31.435448
H   74.628799   98.955078   77.943855
H    9.197121   51.962021   26.004124
H   28.246239   50.254791   73.709045
H    3.577877   86.230362    5.511876
H   56.328026    8.878510   55.753723
H   99.883095   36.466331   28.844624
H   32.636200   30.579025   61.171917
H   16.491707   84.387688   56.441208
H   63.746819   63.245216   48.264412
H   95.811028   58.649082   84.530014
H   62.820248   39.991142   64.232338
H    1.064733   80.556053   54.389904
H   74.748138   14.536963   52.452305
H   50.507038   32.783855   18.135809
H   55.690842   40.334789   20.225653
H   18.634142   30.744156   46.662590
H    8.157197   19.271759   35.513435
H   15.491183   16.964977   65.253540
H   52.957405   29.541416    8.755360
H   99.204704   64.342186   17.671333
H   70.619408   13.732339   67.874283
H   53.840584   97.408813    4.087970
H   34.202133   43.632359    7.345302
H   11.751168   10.684568   17.853764
H   54.860168   38.275745   56.441689
H   63.423618    8.893641    8.646726
H   12.343171    9.835722   12.786674
H   87.312523   51.863342   10.940376
H   25.090530   39.669014   61.427986
H   44.620182   73.429337   16.025091
H   58.086292   14.210374    5.849656
H   82.278236    9.415237   89.065376
H    8.717552   72.449730   50.261902
H   36.188309    8.412587   77.217354
H   15.457706   18.537460    3.664243
H   68.151917   73.384155   45.819450
H   14.661987   36.136391   67.727058
H   22.520838   90.365089   15.008642
H   19.846336   72.052010   61.301624
H   46.245892   69.155472   11.371945
