100
TIME:    4.785, STEP:  4785
H   93.732826   83.212502   94.765213
H   68.325294   64.157669   79.815857
H   62.004471   18.155991   67.178337
H   82.279755   35.509148   77.881599
H   52.312241   56.296356   35.962769
H   53.822514   96.024147   52.621281
H    2.189240   84.443787   64.646240
H   43.794731    2.565982   68.851921
H   36.003502   26.235260   98.887520
H   44.078255   85.088875   95.063873
H   55.165985   58.777378   78.833649
H   73.211983   63.537971   52.327293
H   38.726303   72.231712   49.560303
H   18.156227   90.327156   21.380411
H   38.704308   42.611664   20.761250
H    9.129101   93.215347   35.844666
H   39.325966   98.462189    8.985777
H    3.392028   61.994282   33.652782
H   19.796391   79.090500   15.455286
H   63.598038    4.201170   42.117653
H   80.328041   79.855682   27.371479
H   21.122955   50.436142   11.791290
H   21.857384   55.706123   95.444916
H   74.463135   94.070221   51.697922
H   58.444855    6.684395   71.878151
H   24.733591   85.199936   40.458416
H   49.463409   43.570728   94.907936
H   28.797718   79.787338   24.938204
H   15.216613   83.224785   30.981903
H   84.471802   72.410851   63.782326
H    4.374032   51.135250   30.804970
H   67.885048   20.308556   56.292625
H    7.405727   18.388903   28.867544
H   80.278885   35.205963   70.166817
H   61.829224   97.210648   16.101967
H   88.589783   60.210453    4.383671
H   38.742821   29.299507   85.504684
H   66.217186   71.387108   60.104450
H   43.096958   77.160698   80.610397
H   12.500277   64.228584   14.507788
H    8.231216   20.369101   55.078228
H    1.571974   26.610788   27.603266
H   52.456844   92.194168   47.099022
H   73.804443   92.959473   48.587624
H   41.592281   43.099045   65.575951
H   16.354649   54.183369    2.599394
H   79.117477   85.062035   71.398232
H   56.494961   44.653915   64.646614
H    4.902723   36.155796   53.599876
H   26.233463    3.562109   48.994293
H   43.179554    7.682381    3.868384
H   37.673851   19.726767   59.936874
H    8.126681   49.753784   24.963266
H   65.879143   29.132339   42.964622
H   59.806244   77.936043   41.046230
H   99.553329    7.500367   29.734116
H   99.601044   51.477638   11.080826
H   69.754532   25.003599   90.303940
H   67.658455   40.947495   44.136261
H   43.257633   95.578384   27.513802
H   61.542206   56.046009   41.319244
H   29.085939   83.403976   78.848801
H   98.913567   80.763107    5.348656
H   71.617897   67.829086   97.224777
H   22.246557   78.674561   41.175602
H    7.395649    4.396526   29.109869
H    3.658598   13.793128   98.081284
H   49.833138   91.195999   94.953270
H   95.384933    5.966736   60.127121
H   27.330763   88.813965   91.657288
H   70.087074   69.828537    4.747318
H   79.421600   92.719955    6.956649
H   94.999924   81.620430   39.061661
H   24.872089   46.575695   18.844975
H   92.875740   35.461445   64.133514
H   38.779083   14.245924   73.958878
H    1.401510   11.813965   75.673790
H   56.788326   37.840961   78.697990
H   90.971581   39.463673   71.072029
H   64.859741   48.352947    8.689211
H    4.507024   78.784683   65.977135
H    0.348802   75.477249   86.658470
H   20.536150   87.141418   85.643051
H   79.349716   21.621897   26.381302
H   19.339399   49.581146   83.900383
H   41.165768   84.815880   74.068085
H   86.734047   55.444443   51.710831
H   32.976624   22.195803   45.981339
H   54.986191   27.750696   89.055672
H   43.280514   12.406647   95.270309
H   19.844627   31.808445   34.512249
H   32.340443   55.356873   24.702421
H   92.181389   71.094536   89.035934
H    9.715678    3.477786   49.445972
H   73.860924   21.118195   26.039993
H   89.142944    6.777602   20.297707
H   82.791740   42.281887   61.999237
H   24.429609   56.979095   79.465080
H   80.766815   57.476551   44.243568
H   36.425488   55.840664   36.786083
