100
TIME:    1.955, STEP:  1955
H   85.113922   42.737808   97.356155
H   46.888390   10.741381    1.321096
H   13.359526   14.554633    0.385768
H   81.804749   52.104515   33.002636
H   77.660294   29.459385   12.696949
H   97.700813   99.090096   72.356560
H   50.507999   93.348015   43.336403
H   66.227150   57.733372   28.692291
H    5.570366   98.328003   77.027412
H   21.414892   44.454262   84.245598
H   18.405685   44.906071   51.433506
H   81.223862   21.684481   53.769798
H   18.905182   43.427254   30.818108
H   58.281349   99.049995    6.015606
H    4.279554   95.399048   56.798676
H   22.918846   40.737740   70.759537
H   66.888382   11.284279   51.351814
H   42.922005   99.628807   31.770283
H   75.712502   60.370033   66.357834
H   39.846703   64.294540   49.438118
H   48.264160   61.591854    4.182667
H   49.806034   46.680313   52.790962
H   59.641960   78.722328   76.415070
H   37.400856   60.128880   61.880074
H   59.661736   31.124786   50.986351
H   37.694790   69.354004    5.930487
H   93.496819   61.212147   38.761150
H   67.583786   47.692501   31.393747
H   53.680481   26.464689   64.758354
H   75.956932   42.453873   38.805080
H   93.005898   97.359848   54.711254
H   89.197174   98.499763   18.279900
H    8.064692   25.444870   73.918793
H   60.704720   94.558762   89.390594
H   32.177238   11.137214   43.773659
H   42.534588   38.059483   13.919118
H   67.308105   32.940773   62.511662
H   83.187141   23.172047   60.399128
H   62.832825   38.774513   54.750282
H   79.053856   29.162428   91.849442
H    1.639595   23.264376   88.403488
H   55.916931   99.597862   94.649384
H   28.080397   75.223495   42.684860
H   54.519066   45.536819   71.882858
H   87.073647   54.754765   23.404932
H   52.865345    0.205420   91.108833
H   56.723072   31.202105   44.328560
H   56.343822   15.511923   89.542274
H   22.177343   70.535484   66.490494
H   66.891350   60.505749   46.928707
H   43.395466   80.900703   74.030060
H    0.143005   82.329971   45.720486
H   49.433968   33.344482   89.326378
H   31.419636   75.310600   18.085157
H   85.122604   29.890387   16.995497
H   96.012375   10.477337   26.073990
H   20.190783   33.136497   41.924278
H   80.483734   92.261688   63.199417
H   44.463005   21.372206   61.398041
H   30.008953   78.056076    8.005260
H   83.023361   87.655464   61.967388
H   29.524651    9.747208    6.895808
H    6.838655   73.836845   99.437424
H   77.286377   52.429207   74.064201
H    9.918612    4.700938   77.627029
H   81.246590   45.084145   61.780209
H   30.715712   15.952771   61.449841
H   45.320625   29.346260   59.662907
H   54.340523    9.312485   37.618591
H   69.989807   46.474464   97.616455
H   59.952477   62.382469   38.700291
H   12.768773   86.642319   99.757133
H   79.521774   21.604481   11.618862
H   87.165611   25.662920   87.017097
H   56.428711   31.425432   49.600445
H   71.878120   32.869453   64.381523
H   44.456490   57.101425   25.624041
H   23.829784   22.887602   22.406849
H   55.262489   47.775242   39.489967
H    3.648423    2.479969   52.496162
H   49.139912   49.507030   96.834908
H   88.008820   56.995193   23.301802
H   41.495686   39.887726   16.103825
H   84.656563   79.453468   84.862244
H   57.137344   26.597595   58.237106
H    6.294188   80.865898   77.544334
H   97.724739   61.208496   16.765394
H   87.426804   48.772476   75.418495
H   96.253365   85.321205   12.205151
H   93.489914   28.841240   94.104942
H    4.029234   78.995270   74.747757
H   22.937521   42.540112   70.771828
H   10.720798   86.210617   70.159225
H   36.186108   31.817446   58.633110
H   22.791168   74.613129   61.010338
H   55.396576   18.530531   66.470627
H    7.423934   79.874016   24.755630
H   14.043233   32.883331   24.755604
H   15.581400   45.277531   81.289413
H   60.653458   28.486839    9.391150
