100
TIME:    0.009, STEP:     9
H   16.713915   21.195862   99.137772
H    1.019873    5.232682   78.568237
H   79.919067   74.551338   23.234192
H   81.478119   32.280205   39.670120
H   95.090439   73.478912   65.461311
H   27.876774    1.203856   79.637077
H   52.497807   61.946705   91.156296
H   19.178915   89.380798    7.367096
H   53.406761   85.428009   99.519829
H   74.594658   16.516697    8.040911
H   99.417877   66.604645   38.882584
H   55.498615   24.141594   92.288826
H   42.689621   61.162872   24.234623
H   54.636478    5.049518   57.926018
H   80.612602   69.217178   50.340733
H    1.159302   10.951870   32.293491
H   23.342192   82.592293   74.174110
H    1.337185   94.262833   99.234177
H   45.404442   78.731522   63.834999
H   92.405769    5.343779   16.802011
H   63.742477   55.322144   56.996651
H   63.210789   44.111816   18.489130
H   85.623863   94.549019   32.093781
H   18.205372   36.789707    6.405856
H   29.260618   85.458702   36.624649
H   46.611332   27.347660   88.326195
H   61.303661   42.103420    0.144998
H   31.780930   56.859264   67.073959
H   11.366689   49.908352   56.746704
H    1.339231   90.616898   84.104332
H   16.455782   22.849268    8.699820
H   66.325623   52.261276   98.430931
H   70.992737   67.823784   98.607742
H   78.482414   72.897919   71.372322
H   80.548119   58.239853   25.276810
H   73.337669   85.193047   20.613363
H   80.664116    4.203538    9.172976
H   63.616096   58.789524   23.076830
H   50.316753   80.315865   41.264412
H   62.344791   11.340343   38.742111
H   34.626415   56.487926   42.549618
H   30.812302   12.260338    3.223302
H   11.319394   63.553905    2.123725
H   78.785004   12.922738   81.611221
H   55.874008   31.536850   56.877235
H   77.836494   63.373089   83.353584
H   36.175098   26.225887   27.700140
H   56.239895   95.474335   69.134811
H   65.289970   31.703678   44.115669
H   26.078543   30.886379   83.035416
H   43.536800   68.776100   53.524174
H    5.570958   62.904739   73.471848
H    9.066153   22.060913    2.346732
H   76.475571    7.055499   32.212788
H   40.043396   59.294590    0.482562
H   93.577499   12.523045   92.320419
H   96.823036   89.287102   56.843437
H   25.390089   76.036507   13.323215
H   90.987206   39.149368   10.792136
H   58.430580   28.479475   63.341217
H   60.268539   78.151718   13.694604
H   98.591705   27.861588   94.946609
H   74.844200    6.539573   32.940643
H   43.657478   41.843437   26.896681
H   32.678436   60.126354   96.399101
H    0.792621   41.825764   46.718014
H   86.846245   48.672878   67.496872
H   79.744011   18.051849   66.632851
H   57.352371   49.139641   59.669315
H   30.568947   48.596931    1.711898
H   21.747255   94.791817   62.039463
H   73.224266   51.226830   57.281445
H    6.404613   17.861843   61.518963
H   29.992928   48.810856    2.673676
H   62.604023   28.656504    2.079873
H   25.870428    8.148973   95.324509
H   67.772980   25.764126   91.190735
H   32.403168   50.131413   14.937021
H   61.985924   53.473042   17.788807
H   99.084061    8.463630   20.145685
H   11.058348   29.373800   80.526627
H   41.999683   44.286331   86.027893
H   18.365349    7.407563   30.756960
H   50.789581   12.931736   62.608162
H   51.893227   48.323227   46.879768
H   51.093327    9.377990   42.410450
H   67.755806    2.698557   23.972363
H   56.100052    4.573542   95.644279
H   55.870064   93.671486   28.127460
H   65.538887    8.916847   24.533628
H   24.390902   73.916519   33.651806
H   78.952538   96.183632   33.696655
H   85.861687   27.901052   19.610861
H   48.098175   13.778101   27.425884
H   56.436054   48.924046   16.294380
H   94.664917   95.376274   66.984032
H   61.887932   68.196877   36.671257
H    6.898496   16.314301   55.891075
H    8.283197   36.889088   44.297604
H   39.800457   78.471199   96.818954
