200
TIME:    0.940, STEP:   940
H   30.980528   60.151844   27.309143
H   34.202942   43.097359   18.314957
H    3.466261   99.777039   79.826958
H   41.437973   85.155525   26.194870
H    7.778054    1.470676   43.594185
H   66.846375   33.815895   44.830467
H   13.500976   54.807457   63.200405
H   18.575235   19.112381    0.225639
H   15.855524   77.011993   30.642818
H   86.219864   65.092155   68.461678
H   36.592205    9.547337   15.082329
H   33.672394   60.706848   46.096138
H   28.354809   10.240450   32.602104
H   71.318459   56.160275   75.996880
H   85.826187   77.333229   41.256256
H    8.896950   97.124863   39.222527
H   17.145264   40.501022   81.455063
H   19.940605   16.818989   31.058233
H   88.315674    4.359806   52.788475
H   92.283272   70.091637   10.335114
H   66.485802   11.701271   93.770630
H   74.445229   75.570656   43.599442
H   74.043449   57.451889   32.340096
H   23.435005   94.441170   89.391106
H   33.671951   40.856895   20.432476
H   18.081640   93.402267   83.837196
H   12.451819   72.842476   77.226700
H   10.575646   99.005928    2.573154
H   40.551243   35.252876   34.239471
H   61.416969   39.516979   74.411728
H   12.447586   80.694252   17.050640
H   19.196789   79.912582   10.837702
H   10.209694   24.047609   81.729416
H   73.259132   64.341621   50.525558
H   14.395546   60.876740   28.893755
H   10.186237   33.963272   87.492882
H    6.355476   59.320511   91.210060
H   98.290405   62.862537   83.694763
H   27.163116   21.335190   59.991402
H   83.369644   36.809917   36.352631
H   80.712593   72.523636   24.758781
H   48.181229   28.427988   19.074158
H   64.098099   71.701454   76.320869
H   35.721817   97.232002   43.782993
H   52.694595   97.652115   69.624840
H   31.208990   95.621254   50.300869
H   93.165375   91.916809   11.525985
H   73.074043   65.539925   22.482864
H   14.151847    2.188473   61.671017
H   37.067425   20.960455   76.098602
H   61.556320   61.636101    0.127402
H   94.380119   47.746319   78.591469
H   71.058067   74.404411   17.073982
H   11.988207   96.955734   92.069221
H   47.569382   60.817154   68.134651
H   96.332695   55.103958    1.570121
H    3.432822   19.394386   42.145741
H   75.056381   74.852127   92.668327
H   13.410463   87.999802   24.056461
H   26.913334   92.058510   54.054016
H   48.152443    1.719245   21.784100
H    2.517439   18.083132   54.432808
H   90.732132   39.706757   61.268581
H   41.087090   66.151024   19.296608
H   82.600967   86.514557   46.554432
H   11.280234   43.756096   45.445694
H   60.027687    8.396285    0.297396
H   93.421440   93.041420    1.130447
H   41.421082   15.312743   53.119789
H   41.207500   53.830532   50.945210
H   58.158081   88.699219   92.005402
H   12.467152    5.422550   39.864849
H   99.710587   37.764843   76.055969
H   30.670721   93.578331   80.951820
H   87.668594   12.202949   34.698746
H   71.007088   94.364021   58.303268
H   92.468903   56.009537   62.243671
H    0.628401   18.716558   24.031075
H   16.857187   60.873924   19.419127
H   57.726864   86.762985   61.064606
H   73.077721   18.271338   90.741119
H   57.416637   56.000813   66.217216
H    8.268676   21.344713   69.798607
H    1.847199   84.749306   16.665871
H   13.981079    6.726110   37.944626
H   44.387787   61.282440   13.211187
H   67.228157    4.242754    3.376155
H   69.510262   92.491669   37.844368
H   87.111771   73.760941   79.691650
H   19.938042   17.424120   47.164394
H   11.899847   40.935658   77.640930
H   79.179482   94.677124   13.641727
H   80.514114    8.967392   75.793457
H   28.638487   69.284874   88.325401
H   42.861473   47.457359   97.093987
H   40.283424   43.359856   96.149117
H   88.801140   90.066490   28.476494
H   98.294487   41.150028   57.429749
H   21.156395   62.765854   55.361946
H   79.375603    9.301397   27.421305
H   41.097805   99.780640    1.901938
H   16.601019   87.246933   62.003365
H   37.689743   11.587642   40.284313
H   55.511253   69.231903   17.960949
H   24.410814   18.273590   47.782314
H   15.136171   92.501358   11.117572
H   88.175484   36.953800   50.792950
H   60.626087   61.150826   91.674324
H   90.586021   31.253670   32.981159
H   26.853228   18.300486    8.963243
H   56.404366   89.983864    1.288352
H   14.100430   80.947937   98.484642
H   44.936218   88.397675   78.709389
H   60.852959    4.306295   56.903885
H   40.490578   11.117156    2.228332
H   85.471443   85.320808   10.513504
H    3.794293   18.299566   92.340500
H   37.219631   61.451206   19.986198
H   45.445717   83.994583   48.944569
H   89.255684   60.645809   75.456680
H   47.860481   26.411076   64.582054
H   88.086609   10.897541   68.778137
H   49.112617   92.299515   44.795467
H   93.764343   42.129646   87.210808
H   55.970634   91.621117   69.661736
H   73.366760   81.505096   12.016167
H   77.987038   52.458359   44.020767
H   60.117241   93.060081   40.914593
H    1.082106   27.145306   68.937965
H    1.673867   20.831512   78.427116
H   76.865944   60.191803   30.162289
H   54.831566   92.994125   25.834705
H   90.151985   16.650934    2.583066
H   66.596680   30.950146   58.322033
H   39.006504   88.712982   24.250595
H   43.714127    0.728465   73.368950
H   70.051620   88.348274   90.185921
H   97.189110   42.364643   72.138039
H   64.610046   54.122910   71.384529
H   43.827126   75.518517   76.007111
H   85.272659   42.483414   37.521912
H   25.013550   62.279671   62.565022
H   32.502983   69.643959   75.773560
H   25.637581    1.188809   89.724159
H   73.205231   46.551590   71.958252
H   71.589043   74.035202   96.320335
H   61.287041   93.712303   42.269764
H   23.538521   47.362022   64.808861
H   83.898651   35.566048   90.985687
H   31.776047   96.317162   63.801407
H   51.548111   73.198074   46.059696
H   63.253998   87.740013   26.215912
H    8.694635    5.664425   78.892258
H   28.413872   17.210344   58.653568
H   41.370182   72.366653   73.416405
H   84.282280   45.264591   75.598267
H   66.638535   81.876999   89.044357
H   55.998230   25.428665   26.123707
H   80.343864   99.096542   76.644569
H   55.831699   28.382246    5.103773
H   60.831940   55.970818   64.803978
H   10.737337   19.428715   29.479752
H   95.350883    4.050043   36.940990
H   36.969147   40.743549   41.250870
H   52.251762   45.840576   16.702471
H   23.974052   42.166424   58.475300
H   62.846153   86.244942   59.642429
H   24.243710   62.781090   76.958633
H    3.585274   25.893789   35.204025
H   58.417610    5.177217   82.520660
H   65.992188   13.958442   35.917328
H   21.980257   39.446663   59.607697
H   51.197952   47.374638   70.727982
H   62.605812   57.795937   90.479965
H   38.903076   89.770737   66.317451
H   22.514641   51.448021   23.973953
H   28.226658   74.789459   16.188889
H    7.934021    9.868431   73.831009
H   57.699017    5.106381   60.948734
H   53.002922   61.963951   96.259727
H   68.637817   10.274728   25.444431
H   33.346687   30.960537   95.170822
H   33.403561   89.427612   19.935593
H   66.724831   26.515575    2.942473
H   94.575241   57.973206   75.512924
H   13.914516   42.130447   87.457619
H   55.726379   92.534645   14.775496
H   56.791443   96.875435   50.020744
H   86.345985   64.294716   74.543594
H   62.342834   54.465481   74.547012
H   81.258911    7.864939   74.302681
H   41.914467    3.952503   15.708318
H   19.649132   34.177452   73.842934
H   22.874643   91.467682   47.420414
H   60.872345   22.989319   19.526512
H   77.037125   12.101109   19.976032
H   14.114257    4.647083   27.093489
H    8.565657   83.493980   27.225273
H    2.578676   13.570551   46.710609
H    0.706761   11.276878   88.023605
