100
TIME:    0.740, STEP:   740
H   67.279213   54.159523   98.468521
H   80.685768   44.867207   24.679136
H   92.478668   27.142239   14.651054
H   81.600815    2.161169   99.600578
H   88.542938   32.071785   45.640343
H   16.541344    0.408255   52.030750
H   14.187563   11.305223   48.321735
H   61.723755   52.620617   40.249985
H   35.437386   15.145536   53.507584
H   54.617531   27.009987   36.668098
H   31.422028   96.018204   68.468102
H   27.596447   60.783058   40.254601
H   96.191437   16.936569   51.578461
H   18.441181    2.795677   13.553837
H   89.502480    3.924789   15.200806
H   71.770264   47.011829   71.613754
H   64.571648   30.934372   40.730049
H   16.957535   58.714478   73.891891
H   56.787277    9.395877    2.350028
H   72.618263   90.016968   66.672325
H   20.363892   82.548126   37.158951
H   33.303944   45.076653   56.246746
H   75.863960   88.603844   11.177248
H   50.287521   45.556889   52.116714
H    3.117938   27.486942   42.022537
H   43.265888    5.560554   19.813276
H   98.267395   11.715535   14.650625
H   70.101128   90.979889   91.233902
H   27.261795   16.230707   22.191864
H   29.367613   72.524826   42.216122
H   45.211246   88.402351   50.854362
H   12.481131   32.066643   30.758553
H   22.482056   14.340437   64.461998
H    9.368743    5.906156   40.575645
H   62.377968    2.981742   69.788269
H   36.895538   42.616283   18.098097
H   50.774204   77.435402   66.774422
H   33.405014   45.410091   74.660469
H   17.452213   64.711174   71.202011
H   93.493843   42.907070   96.255486
H   84.670731   81.571999   59.777241
H   65.114189   45.070183   37.566486
H   17.614889   67.937500   54.923302
H   32.104782   25.172812   53.085945
H   92.466057    2.695570   19.431353
H   68.500450   77.115288   86.220207
H   43.893787   65.661240   33.946480
H   56.278934    3.002397   14.364898
H   86.661369   71.161667   14.954659
H   41.409954   42.012669   31.908180
H   43.488163   98.200920   61.219318
H   41.094933   95.072266   25.482109
H   24.229616   26.299500   59.893234
H   59.553219   95.129250   64.470657
H   81.848587   23.376829    6.685480
H   94.492142   11.754240   67.435455
H   43.163918   68.194557   26.367714
H   70.956726    7.003329   94.493973
H   48.638458   70.035278   54.674015
H   10.187072   84.666626   42.562218
H    6.380098   44.157051   56.698502
H   72.647095   21.057541   61.874123
H   24.426323   56.691231   82.791115
H   93.853523   45.819901    7.047827
H   61.696022    1.741005   64.476967
H   55.885933    5.485511   89.940437
H   28.197412   73.944855    2.788871
H   29.249062   59.858627    1.578880
H   93.782921   96.614655   13.820147
H   45.376457   85.363426    0.174656
H   98.533028   45.053226   53.272282
H   12.951019   26.966499   10.800512
H   58.742538   81.702766   42.774372
H   13.903152    2.550368   59.228203
H   97.850998   29.696630   57.495045
H   43.153820   55.000664   46.136623
H   34.141926   62.407341    4.128162
H   66.746872    2.333475   55.308811
H   97.021507   51.334812   25.939720
H   63.234543   68.653755   57.169495
H   25.363094   36.937298   24.216465
H   96.845558   49.060318   24.899769
H   64.617027   19.608423    0.381311
H    1.074164   75.484352   95.839272
H   16.297430    2.595537   76.017799
H   34.260845   36.235729   93.170982
H   16.577658   49.548897   58.829159
H   67.867706   46.047707   88.048286
H   71.039742   52.969902   22.146034
H    0.910269   78.835556   50.667065
H   54.306400   13.390070   49.089184
H   33.039463   51.160942   47.622643
H   32.763115   49.802795   76.163139
H   18.751200   58.120377   76.712303
H   43.798374   83.444946   33.089958
H   55.042557   66.509270   29.227150
H    3.864975   10.147424   94.630737
H    9.582183   22.538330   44.195923
H   73.460197   40.040142   83.065132
H   85.197952   59.697445   26.413580
