100
TIME:    0.581, STEP:   581
H   78.031898   68.740669   98.614090
H   85.108635   36.245892   14.649484
H   89.746826   15.703551   16.517975
H   81.574127    8.712374    8.316064
H   89.967087   19.327232   49.951607
H   19.006916    0.581303   36.283840
H   22.520706    0.568511   35.887730
H   74.220840   38.865574   54.849327
H   39.345909   30.432709   63.516655
H   58.962761   24.727589   30.441393
H   46.211823   89.620453   83.784370
H   33.665455   52.813164   51.572578
H    6.305563   26.556244   67.381432
H   26.314030    3.285911    1.453441
H   87.568840   18.126635   22.843809
H   78.163162   60.919720   84.811996
H   77.355019   20.419449   26.253469
H   13.559934   66.446609   79.404099
H   54.311394    2.725305   93.972855
H   76.922249   93.350494   55.825020
H   29.799179   98.376312   41.473854
H   18.058033   44.866791   69.785347
H   77.986839   89.896980   15.726578
H   65.060333   43.649937   63.925987
H    8.804304   40.096844   40.849014
H   43.994946   10.297988   34.716385
H   11.978102   18.325165   11.495420
H   83.517723   83.558304   85.978867
H   23.804535    1.805155   29.707462
H   23.271311   76.460037   29.576008
H   38.956638   74.143883   63.436363
H    2.442073   36.459183   45.477989
H   11.282225   25.973207   50.138023
H    2.650438   20.477386   47.274239
H   66.330162   15.001180   60.106003
H   23.070957   30.126387   18.645193
H   35.524654   83.258156   54.245800
H   39.976234   48.320255   63.439594
H   24.600250   68.105354   86.440643
H    8.470089   57.792698   83.746269
H   95.537445   76.115593   56.030056
H   79.404198   37.933670   30.096380
H   16.245329   66.984024   43.439133
H   42.258209   22.508295   37.539192
H    6.258404    8.968694    5.824911
H   70.531136   74.126274   85.596687
H   42.214893   57.083828   32.587837
H   56.270443    1.365292    4.526923
H   82.012871   84.330795   21.297266
H   38.075214   39.592587   43.028427
H   43.500294   13.551676   59.542850
H   33.367653    9.826153   35.920609
H   20.931269   25.377563   69.127693
H   63.234898   97.722801   57.454243
H   94.505798    9.438005    5.336239
H   94.293198   11.921341   72.848190
H   33.084488   72.782402   11.245441
H   82.796326   22.018745   98.589310
H   36.098915   63.317276   66.880890
H   20.679115   72.446121   47.084557
H   96.350204   51.550735   69.095398
H   78.290314   22.537491   69.068008
H   13.641424   67.533684   93.699074
H   82.935860   44.954979   11.365156
H   55.384399   14.440296   49.669014
H   65.653603   13.389851   80.539116
H   40.954277   68.447205   95.112350
H   40.232231   50.765427   93.977760
H   85.859123    8.039360   23.792759
H   42.155746   77.366844    0.509009
H    3.582181   55.872631   55.179234
H   26.061243   32.243370   99.159218
H   69.109467   89.568336   46.851513
H   17.402687   12.612429   68.678047
H   90.184372   29.470392   45.441944
H   39.394505   44.809631   56.834721
H   19.705650   76.187859    1.314804
H   59.276764   12.730194   46.527370
H   89.400978   51.800632   24.166813
H   71.032181   77.312675   70.867523
H   22.251560   35.292370   14.713810
H   84.916191   48.021927   38.195946
H   54.556934   16.954824   85.237305
H   90.136993   61.878513   10.362190
H   24.039873   12.541236   91.431114
H   37.920689   30.394947   82.129585
H    5.958410   61.109489   51.247448
H   65.308121   58.777702   89.700493
H   67.740181   61.822914   23.447056
H   14.967960   85.378876   44.982601
H   47.799473    4.804597   45.731396
H   21.275072   39.202461   44.593597
H   22.561726   45.039055   63.862572
H    3.382976   48.475227   65.991158
H   46.547199   97.686432   29.436607
H   41.909821   72.788139   37.439659
H   16.485479    1.022961    3.774984
H    8.998391   21.184540   46.739738
H   81.034630   39.354755   96.384682
H   75.323532   63.781864   41.727646
