100
TIME:    4.418, STEP:  4418
H   18.550961   16.868103   95.101212
H   78.461250   44.269379   56.675873
H   55.696098   91.753044   71.484718
H   82.218155   50.629082   97.996712
H   55.599426   26.879686   45.913925
H   59.514889   96.421745   16.275244
H   21.423359   59.663403   35.946362
H   72.640205   70.814301    2.547136
H   45.025063   61.520706   21.989237
H   54.107811   79.819298   80.694336
H   89.303436   44.010242   14.185715
H   87.217522   45.142052   78.451180
H   62.145401   94.424416   86.027344
H   36.327080   91.458351   93.451218
H   34.241127   75.393921   38.403080
H   23.886436   25.314751   66.308533
H   68.837837   74.186295   75.576317
H   95.545479   79.852287   46.375927
H   14.080215   63.696114   96.120697
H   73.487480   11.994936   17.130564
H    2.106339   16.391125   37.331688
H   85.938309   49.948944   43.044754
H   26.757362   58.690910    5.945270
H    8.561470   89.668640   78.954269
H   71.571198   35.790268   69.167763
H   26.406584   96.047089   74.969154
H   81.110161   58.827862   87.627968
H   59.762928   62.657013   12.806041
H    7.235948   49.927334   48.330544
H   70.399063   81.494011   34.606453
H   89.931099   18.226406   59.840843
H   44.712353   30.447311   90.267677
H   81.555641   45.240074   95.805283
H   64.772552   68.839417   85.628349
H   70.951584   24.953331   93.754471
H   56.686726   31.465778    5.538316
H    3.543087   42.739731   56.586414
H   81.387520   78.101479   34.207363
H   58.589291   85.157463   16.175268
H   47.066917   98.584435   85.633606
H   33.312180    7.777548   46.431866
H   34.556473   10.139518   10.362967
H   49.295658   89.993378   20.590937
H   97.240341   86.810699   12.703732
H   73.426170   57.577782   34.171284
H   21.089428   47.183399    1.107473
H   76.250290   65.103722   67.875847
H   56.475361   40.873932   41.938713
H   94.174301   66.549896   68.240204
H   18.536297   97.977150   74.662941
H   43.207554   43.114388   99.999496
H   19.838884   53.782513   84.028442
H    0.513951   47.625793   46.279110
H   74.379906   35.121513   26.769947
H   89.026917   45.771366   37.924244
H   99.094131    7.886415   42.227661
H   76.333145   62.067192   76.175972
H   97.082413   59.662132   99.756699
H   38.714630   25.440571   72.311714
H   67.475128   67.371307   37.952156
H   38.391907   73.113426   69.932899
H   42.111168   86.819962   95.452728
H   73.999275    5.806369   30.514946
H   46.416054   65.829895    7.189152
H    7.679612    7.985305    6.997928
H   29.940254   22.640816    7.410207
H   33.104568    1.105500   80.362961
H   75.184227   70.207291   77.408546
H   77.095413   32.337021   83.143494
H   19.895395   70.356445   92.430084
H   81.740623   94.798828    9.150040
H    9.683264    4.900055   80.087578
H   18.929640   99.775551   48.472420
H   32.952328   69.800896   40.651024
H   75.179817   34.937847   36.312832
H   30.101923   90.725060   98.654770
H   68.081589   43.623737   69.183418
H   39.546001   61.839657   58.430908
H   73.370857   40.541668   66.978447
H   82.858063   68.341454   40.306511
H   97.326340   74.987900   44.042034
H   72.813698   73.080460   17.347109
H   97.321892   81.003845   50.692539
H   54.100525   90.216621   59.899956
H   37.209915   72.537209   19.476730
H   49.613331   71.336739   48.582596
H   62.222954   82.128326   34.210907
H   27.069818   51.578407   49.797722
H   47.370224   48.184715   92.057259
H   75.728561   27.506981   82.149567
H    4.825418   11.991531   26.761881
H    5.184132   27.756882   17.709711
H   68.655891   60.080383   60.655254
H   74.244797   81.217636   24.702066
H   80.205696   53.992851   17.607830
H   58.830276   21.269356   39.253624
H   11.922528   21.220379   83.105545
H   23.082815   53.854309   85.339455
H   98.249939   55.894558   74.983635
H   13.630713   65.257393   72.140884
