100
TIME:    8.895, STEP:  8895
H   15.789720    6.307763   91.002396
H   54.817856   86.870911   38.963207
H   32.667782   13.845939   18.926517
H   82.969604   66.176445   52.598335
H   15.492315   85.730728   24.525146
H   90.080933   91.571480   59.648376
H   86.782997   61.972313   86.053749
H   20.756836   58.131512   91.484093
H   34.971794   31.074745   40.178722
H   31.806070   44.104023   55.995949
H   72.863800   24.151211   82.937752
H   16.342918   69.551018   59.773125
H   76.544983   23.585388   41.146683
H   14.654490   77.659004   34.153706
H   88.644661   75.487587   23.140549
H   43.875076   33.739830   94.677795
H    8.824025   70.304848   83.135292
H   91.277634   62.008247   91.182205
H   83.808334   51.510899   31.984722
H   52.866940   16.918787   21.945520
H   36.434807   70.692596   15.819078
H   15.152658   55.892227   61.786865
H   66.981133   22.284323   77.853668
H   92.584030   43.238251   46.454433
H   11.448674   80.742554    2.230472
H    5.665773   63.878891   53.823528
H   95.052956   72.723770   76.459091
H   82.007172   71.628235   60.796188
H    4.583878   56.115871   36.699883
H   42.066261   70.688126   90.515930
H   66.131950   19.687881    5.634987
H   27.392902    6.754184   75.809380
H   96.908096   17.681831   99.128799
H   53.937256   58.549011   97.020012
H   59.583763   86.193703   66.233047
H   45.864384   82.126694   91.462135
H   32.945526   78.780525    9.356505
H   96.346138   96.168358   50.135826
H   69.612877   87.611229   82.321014
H   25.384207   79.463554   37.874619
H   27.340868   61.388870   51.906826
H   50.591782   76.484909   34.066692
H   87.837555   16.846489   43.967594
H   11.369228   61.950829   50.439602
H   85.080276   80.948921   17.280630
H   63.305702   32.569317   19.298235
H   11.234336    8.578276   10.851534
H   56.730526   86.985611   18.949329
H   25.040413   95.767006   89.648651
H   12.489998   66.122093   61.595524
H   42.890820   10.888500   47.195511
H   37.426510   38.348919   90.134499
H   93.374321   73.584961   86.265121
H   70.700958   62.078812   24.327576
H   32.562233   38.120110   75.998306
H    4.674471    3.177047   89.819992
H   60.154915   32.885185    1.975885
H   63.715759   36.864555   84.439720
H   91.807716   14.614018   28.616083
H   72.039635   11.486775   10.615623
H   20.804018   64.910645   20.872272
H   83.216972   45.148666   92.883919
H   77.942856    0.303746   23.513611
H   53.844395   90.217850   85.640106
H   85.381195   50.415630   23.921503
H   54.914955    0.076921   72.126183
H   73.905869   55.883533   96.512009
H   65.927246   26.252373   91.435043
H    0.226253   10.648354    2.352858
H   10.677825   95.418045   82.977463
H   39.571072   90.183586   55.453163
H   40.785522   56.251366    8.046319
H   27.021149   78.326927   33.682072
H   34.395130   86.455177   74.643074
H   90.952744   41.412640   75.726562
H   35.941177   77.659660   97.409225
H   74.638504   55.916401   48.497902
H   49.877605   69.103951    5.686201
H   88.061180   27.391300   16.924562
H   63.306145   24.466780   54.609001
H   84.949791   21.305216   11.625295
H    8.770264    2.158040   42.848114
H   80.503029   55.874058   77.058266
H   62.109680   73.323586   50.995861
H   19.218506   92.485275   85.483231
H   46.574528   35.781654   59.479019
H   61.231785   56.613197   47.691154
H   99.085106   93.287697    3.350587
H   40.282230   98.913429   55.441170
H   79.901688   43.312706   42.191193
H   88.042717   53.733479   21.308250
H   36.438824   64.468399    3.014875
H   55.640125   94.408836    6.868587
H    6.932966   52.822254   26.574003
H    2.800233   52.970448   20.483641
H   28.612152   44.477661    8.010622
H   56.558952   78.144630   25.629040
H   21.107904   26.585388    0.312460
H   84.975853   75.212959   99.987038
H   91.714478   50.372540   40.856777
