100
TIME:    0.896, STEP:   896
H   56.729408   39.853493   98.325699
H   76.346352   53.325855   34.519588
H   95.158966   38.365429   12.819359
H   81.626999   95.733971   91.050285
H   87.145660   44.575874   41.410423
H   14.122292    0.238477   67.480278
H    6.011845   21.839422   60.521137
H   49.462463   66.116318   25.926102
H   31.602608    0.146536   43.687363
H   50.354286   29.249321   42.777321
H   16.911285    2.295170   53.441658
H   21.641949   68.602577   29.150324
H   86.267670    7.498129   36.073914
H   10.717081    2.314693   25.425938
H   91.399635   89.990326    7.701744
H   65.497986   33.366352   58.664536
H   52.029472   41.250900   54.933723
H   20.291245   51.128235   68.483688
H   59.216446   15.940707   10.568346
H   68.395485   86.746338   77.314964
H   11.106628   67.018585   32.925461
H   48.262196   45.282555   42.963085
H   73.781136   87.335106    6.713755
H   35.793442   47.427860   40.530258
H   97.538567   15.114964   43.173447
H   42.550587    0.912482    5.191443
H   84.815918    5.230576   17.746298
H   56.938316   98.261444   96.389786
H   30.653824   30.383799   14.818069
H   35.349224   68.663864   54.617855
H   51.347843    2.391867   38.509758
H   22.330999   27.756981   16.316841
H   33.470524    2.927086   78.515709
H   15.960288   91.609749   34.003441
H   58.500343   91.189308   79.288330
H   50.458893   54.870434   17.561323
H   65.736168   71.722511   79.066658
H   26.957779   42.554836   85.669685
H   10.438808   61.381035   56.250282
H   78.799812   28.302454    8.529097
H   74.009048   86.925453   63.453724
H   51.093803   52.072044   44.895649
H   18.958609   68.872986   66.191017
H   22.143518   27.787054   68.339363
H   78.933647   96.540298   32.781105
H   66.508080   80.047905   86.831963
H   45.541004   74.075851   35.279488
H   56.287266    4.608598   24.017302
H   91.222160   58.241547    8.731477
H   44.681774   44.387089   20.997749
H   43.476261   83.140312   62.864155
H   48.676414   80.597229   15.240562
H   27.465731   27.204041   50.832352
H   55.941006   92.584633   71.354691
H   69.430191   37.052876    8.009264
H   94.687332   11.590292   62.124847
H   53.053169   63.693275   41.204567
H   59.340515   92.271263   90.475906
H   60.941406   76.626526   42.697178
H   99.892944   96.656555   38.125206
H   16.220858   36.902870   44.535995
H   67.110352   19.605515   54.815132
H   35.007835   46.053352   72.088966
H    4.565487   46.668503    2.811956
H   67.887810   89.282036   79.004372
H   46.302559   97.730354   99.164375
H   15.680826   79.338776   10.320869
H   18.473122   68.780258    9.036582
H    1.557412   85.405487    4.035929
H   48.536400   93.209129   99.846405
H   93.579475   34.437962   51.401310
H    0.088381   21.789192   22.222128
H   48.571213   73.985603   38.774158
H   10.469764   92.678772   49.956657
H    5.372431   29.918600   69.320732
H   46.842205   64.999290   35.640377
H   48.306324   48.886833    6.888500
H   74.076035   92.133430   63.924564
H    4.498882   50.877781   27.679176
H   55.584030   60.157669   43.729919
H   28.415920   38.551189   33.539883
H    8.550293   50.079117   11.854645
H   74.488426   22.211954   15.239307
H   11.805862   88.833473   81.590370
H    8.701357   92.838135   60.895302
H   30.670055   41.966473    4.004133
H   26.996542   38.206429   66.267822
H   70.378998   33.557899   86.427254
H   74.277046   44.283928   20.869560
H   87.118362   72.415695   56.244274
H   60.690556   21.813608   52.383617
H   44.581882   62.893791   50.594536
H   42.772575   54.476654   88.231621
H   33.829659   67.583092   87.231163
H   41.101414   69.472168   36.674797
H   67.927505   60.348869   21.169594
H   91.482376   19.099806   85.659119
H   10.154960   23.866577   41.700104
H   66.028679   40.712597   69.996895
H   94.886063   55.690090   11.388174
