100
TIME:    4.012, STEP:  4012
H   46.006744   54.100464   95.472916
H   89.674324   22.267595   31.074808
H   48.717354   62.543297   76.248726
H   82.150009   67.355766   20.251257
H   59.235931   94.336998   56.922562
H   65.811287   96.861595   76.068321
H   42.701092   32.247128    4.196587
H    4.551010   35.690762   39.825680
H   55.005318    0.555843   47.546383
H   65.203178   73.989738   64.797791
H   27.068558   27.673847   53.292789
H    2.711915   24.791254    7.350853
H   88.053177   18.976662   26.369705
H   56.430077   92.709755   62.556271
H   29.302811   11.659513   57.920643
H   40.211212   60.824883    0.009707
H    1.485873   47.332600   38.616539
H   86.871788   99.596916   60.453991
H    7.756615   46.662773   74.729126
H   84.427971   20.616922   89.488274
H   26.198944   56.810848   48.349617
H   47.014694   49.409973   77.619431
H   32.178047   61.992882   17.561901
H   46.283241   84.799316    9.106451
H   86.092438   67.988754   66.169350
H   28.259787    8.066318   13.126060
H   16.119223   75.704178   79.574379
H   94.021271   43.706299   99.385307
H   98.407425   13.092189   67.522865
H   54.830856   91.542412    2.331512
H   73.954018   81.819099   91.962273
H   19.077162   41.663483   27.853096
H   52.958012   74.945427   59.229599
H   47.618408    6.046917    2.732725
H   81.043350   55.643700   69.029953
H   21.391283   99.648712    6.838255
H   64.601059   57.607895   24.595083
H   98.169960   85.529366    5.558020
H   75.725830   94.004021   55.519524
H   85.307701   36.593178   53.690830
H   61.059891   93.846390   36.866680
H   71.045425   91.918365   91.288895
H   45.798542   87.558716   91.264885
H   23.165415   80.008514   73.006226
H    8.644751   73.596985   99.427917
H   26.327358   39.439564   99.457863
H   73.078415   43.024498   63.979134
H   56.453678   36.692261   16.817711
H   82.304550    0.176704   84.434113
H   10.021174   91.800667    3.060817
H   43.238529   82.310585   95.718704
H    0.109139   91.455566   10.680775
H   92.094704   45.271667   69.859871
H   83.784019   41.747139    8.855357
H   21.352493   10.189989   34.470493
H   98.586136    8.313772   56.048859
H   50.594250   73.782066   37.562111
H   27.313957   98.003410   10.214808
H    6.695417    8.285227    3.479282
H   94.268799   36.163982   49.499763
H   12.780430   91.995995    1.589572
H   56.520897   90.598953   13.822991
H   46.435444   33.511894   58.355583
H   18.535898   63.618790   18.213276
H   91.565331   40.412243   69.189140
H   54.881599   42.824348   83.404556
H   65.678238   87.067627   60.761761
H    3.229391   46.988174   57.999401
H   56.861229   61.509598    8.606041
H   11.669893   49.935364   93.285004
H   94.632561   22.423450   14.020912
H   43.159203   18.374878   50.362217
H   45.401932   19.856899   58.883232
H   41.891811   95.491844   64.774620
H   55.604733   34.358608    5.534431
H   20.502665   64.705772   25.973179
H   31.218210   78.813522   62.003330
H   20.471386   88.385780   36.007858
H   53.901367   41.734219   62.448792
H    2.769065   90.451653   75.283867
H   89.384262   70.787643   19.776731
H   42.350342   70.428970   51.296753
H   71.637520   74.225464   12.023144
H   26.169737   55.474678   96.983292
H   56.978378   97.930794   58.834000
H   58.958591   56.423637   20.388840
H   35.107140   11.647850   14.851271
H   20.535570   84.083931   54.019661
H   38.944931   70.790520   95.377815
H   11.623523   44.211983   67.634521
H   88.210144   90.068138   18.187906
H   75.143799   97.225151    9.973286
H   42.630409   47.897781   29.258646
H   35.002941   56.591309   97.327568
H   87.224709   90.358757    8.278964
H   25.296371   37.301155   60.223930
H   44.148407   97.921257    6.454973
H   21.592901   50.397461   91.838081
H   17.590782   54.144451    8.989182
H   88.411964   75.677498   11.251018
