100
TIME:    4.894, STEP:  4894
H   86.361488   73.216621   94.665421
H   65.314888   70.063721   86.688232
H   63.878075   25.997601   65.899330
H   82.298050   31.018394   71.907356
H   51.335938   65.033188   33.007248
H   52.131863   95.906059   63.416332
H   96.476326   91.803482   73.170181
H   35.227547   11.995696   58.843967
H   33.324074   15.755381   92.026787
H   41.099449   86.653954   99.331665
H   45.027069   63.163258   68.333817
H   69.052299   69.001610   44.568428
H   31.770767   65.640419   38.729492
H   12.759408   89.991188   29.675661
H   40.029884   32.875244   15.521709
H    4.746209   83.681839   26.796574
H   30.560860    5.671688   18.908476
H    5.722897   56.691143   29.874208
H   21.494110   83.662659   21.197512
H   60.661644    1.886402   49.538887
H   73.859825   69.004913   24.413048
H   31.572891   50.580841    2.508979
H   20.402077   54.819633   92.326401
H   64.335861   95.374725   43.602257
H   54.546295   98.040054   72.683144
H   24.236708   81.978302   30.208822
H   40.063789   39.039318   97.070107
H   19.600594   84.875092   28.541544
H   17.586754   93.114220   25.829700
H   88.651443   69.713127   72.447639
H    8.664069   60.909092   22.181236
H   74.767403   17.297318   46.201942
H   15.083719   10.414236   38.687126
H   84.884308   25.216736   65.574699
H   59.119858   88.971115   22.738998
H   98.065079   68.747704    4.040738
H   49.196915   25.307392   94.093491
H   61.711979   69.392921   67.796364
H   38.495693   74.785637   70.047363
H    2.233718   54.023987   23.083704
H    0.782022   24.108824   57.646221
H   91.775627   31.502699   32.723454
H   53.395725   92.847809   54.971817
H   66.843918   94.788452   59.244804
H   32.137775   38.798820   74.903221
H   14.948250   56.262379    3.042483
H   79.969040   90.989708   72.444389
H   56.500782   45.776581   71.390923
H    8.088699   27.128735   49.251419
H   28.519543    5.221159   41.370979
H   43.171238   97.158981    5.017453
H   42.971169    9.612383   52.780922
H   10.387605   50.385803   18.632681
H   63.354607   27.353539   47.774620
H   51.127625   87.489510   41.973469
H   99.689713    7.385710   26.023499
H    6.511083   48.332512   21.447701
H   61.638077   14.709616   87.496445
H   76.255577   45.552917   35.767830
H   36.065090    3.956323   24.413582
H   68.417908   50.977383   32.821083
H   25.217733   82.389420   73.917389
H    6.313558   73.325241   97.874176
H   79.102333   68.422852   94.265930
H   26.572977   69.969330   51.326160
H    0.699964   98.977959   35.554802
H   94.913300   17.561420    3.343904
H   42.303795   97.429703    0.164100
H    0.817072   98.134712   53.290504
H   29.539087   94.295898   91.427765
H   66.625938   62.412292    3.439702
H   70.433624   89.102478   14.937137
H   87.893036   76.228310   36.266640
H   22.472912   39.677540   12.368858
H   98.131477   35.616955   72.396332
H   41.356224   21.231813   66.624130
H   11.298071    2.366518   77.601448
H   61.909344   30.713360   84.717140
H   96.199043   39.143505   72.287834
H   59.514191   42.416126   99.298859
H    6.639984   79.912338   72.491920
H    8.527442   76.189102   77.544090
H   27.430979   88.964294   96.023132
H   86.849121   30.949583   16.426170
H   14.031764   42.762825   73.334023
H   38.656818   88.819221   81.637344
H   94.013908   47.519257   56.908356
H   34.731308   13.469305   44.847862
H   57.248154   21.682066   88.164192
H   33.643055    7.921806   99.167206
H   24.305351   37.693722   36.814129
H   40.405338   63.554825   26.778936
H   99.168526   74.366066   97.465073
H   20.251144   10.089520   56.794857
H   71.976509   11.354332   28.544369
H   98.145889    2.473513   14.667698
H   74.139732   48.537212   55.730606
H   24.829611   57.907166   77.720375
H   75.574280   57.946407   35.113388
H   43.195576   53.043980   26.285646
