100
TIME:    6.178, STEP:  6178
H   99.529861   55.468071   93.489883
H   29.853149   39.641079   67.649452
H   85.958527   18.373959   50.824299
H   82.513565   78.116364    1.524809
H   39.835266   67.951370   98.195190
H   32.216305   94.515007   90.574303
H   29.181690   78.506233   73.580727
H   34.307678   23.077709   40.950710
H    1.760861   92.303787   11.203324
H    6.016977    5.090664   49.611423
H   25.592514   14.827560   44.653076
H   20.043205   33.361668   53.172050
H   49.835861   87.994164   11.144463
H   49.182961   86.033546   27.388546
H   55.643990   18.183411   53.801708
H   53.120148   71.378517   20.213051
H   27.309212   90.597816   35.796059
H   33.180668   94.217743   85.363808
H   41.490612   37.528496   88.843475
H   26.071465   74.614296   36.959557
H   97.665451   41.178242   89.561821
H   54.671219   52.285370   93.164536
H    3.257319   44.376945   55.590866
H   45.032917   10.735079   48.241833
H    8.624080   96.212784   82.165810
H   18.383512   44.022888    9.466370
H   29.342693   85.665115   22.547590
H   11.260449   44.807854   70.986618
H   45.505760    9.608700   65.134735
H   37.884418   37.934441   74.521988
H   59.200462   76.048271   20.595238
H   55.839909   81.819641   27.335625
H    5.526560   16.470484   54.359985
H   39.137520    7.545910   11.482260
H   27.202919   91.908791    0.924342
H    9.680798   69.316170    0.002510
H   72.348946   78.283325   95.267677
H    8.645481   45.894222   58.404697
H   84.297058   46.807854   45.617958
H   81.294556   33.819431   24.106237
H   13.029274   68.163002   87.896706
H   79.565735   65.830170   95.357903
H   64.455170    0.547776   47.717072
H   84.857468   16.340353   84.787804
H   20.760365   88.139938   84.778183
H   98.378868   80.752731    8.260008
H   90.000290   60.818741   84.767937
H   56.569355   59.001373   50.837543
H   45.617722   20.788223   98.030106
H   55.450130   24.764730   51.566719
H   43.077381   73.197388   18.552811
H    5.372179   90.467194   68.488869
H   37.022800   57.830872   44.060574
H   33.623314    6.400712    4.435137
H   48.893639    0.014755   52.896168
H    1.290451    6.035067   82.313095
H   87.910393   11.283189   43.566719
H   66.028961   93.451363   54.424667
H   77.522095   99.804131   37.197197
H   51.333633    2.648813   87.893578
H   49.413868   91.266495   32.710392
H   79.648628   70.438126   15.818147
H   93.484673   85.707191    9.826447
H   67.273056   75.417297   59.409962
H   77.539185   67.418625   70.899193
H   21.822098   35.146294   11.475270
H   91.895615   61.949337   65.336075
H   53.609077   70.863625   61.546726
H   64.814674    5.874641   72.760193
H   55.548309   58.879036   88.724030
H   25.853653   75.049850   88.039253
H   64.561661   46.489258    8.945636
H    4.173629   12.718033    3.341817
H   94.208946   58.412380   36.077171
H   60.035656   37.448833   69.732315
H   71.711983    3.524115   80.227966
H   27.877357   91.078773    0.309249
H   22.234005   46.756523   55.628853
H   57.768925   35.371990   86.609795
H   96.550583   72.474648   88.681023
H   31.766245   93.195908   49.233341
H    4.888975   84.535980   70.151299
H    8.646333   10.436584   18.304550
H   75.185417   40.824242   99.152946
H   51.512108   62.449097   48.864532
H    9.101856   35.982002   70.802246
H   79.769371   54.161858   18.134375
H   55.388237   10.703512   31.521545
H   83.893661   50.190788   77.662727
H   20.120230   55.097881   45.065079
H   76.851860    7.026515   63.929852
H   35.408337   60.123886   51.239906
H   81.475250   12.889157   96.758804
H   44.346958   87.985298   43.372009
H   49.778450   96.341354   58.049778
H    4.199067   51.768829   48.347275
H   72.221825   22.222849   81.886749
H   26.352358   92.146378   54.856651
H   14.407229   63.481228   27.564835
H   22.950861   20.097782    2.593546
