100
TIME:    8.002, STEP:  8002
H   76.179680   88.199730   91.819962
H   79.481094   38.481045   82.657303
H   17.317980   49.599594   29.408394
H   82.819717    2.967190    1.545017
H   23.494242   14.152837   48.737671
H    3.926530   92.538933   71.211617
H   33.585651    1.670033   16.219990
H   90.944870   80.876366   73.477318
H   56.923439   16.933254   96.389267
H   56.196815   31.281862   21.030312
H   55.928482   88.220566   68.955566
H   50.428604   24.789288   23.337723
H   33.488838   77.635025   29.890501
H   58.869896   80.411476   66.196953
H   77.798286   55.254745   66.083527
H   79.779846   11.844879   68.804962
H   80.633736   11.241657    1.841984
H   72.184341    5.461759   22.137562
H   69.896088   14.045941   84.938324
H   76.927475   35.882214   61.145973
H   89.426704   59.593777   40.055370
H   29.539873   54.706757   37.834045
H   78.903969   29.543627    3.402835
H   75.557312   32.555389   12.775350
H   43.386299   51.562355   95.636513
H    9.877285   90.204514   37.858543
H   72.058304    9.842473   58.743145
H   57.355392   29.946005   31.275328
H   85.166405   75.096115   78.913536
H    7.825873   92.789658   19.524555
H   30.983942   39.610481   76.286308
H   71.008476   31.424831   58.478844
H   34.006779   83.018227   18.680311
H   16.205162   40.387093   34.638916
H   81.807930   53.806328   11.899387
H   68.237900   12.179845   94.269112
H   47.294628   11.484312   38.991543
H   33.255348   12.510065   87.120430
H    7.303788    7.068079   68.859123
H    9.494846   63.063828   67.616333
H   88.371902   30.750586   30.868132
H   25.849083   72.983002   88.476585
H   80.152435   11.489460   79.465858
H   68.387680   46.955589   63.127537
H   62.540543   16.175556   40.863068
H   74.832970   15.539985   15.670286
H    4.252880   60.014229    2.275747
H   56.676022   77.787994   63.695965
H   98.939095   69.723640   25.270412
H   93.743896   52.528996   24.032211
H   42.952137   97.101662   37.779877
H   94.025345   21.212271   48.755463
H   74.856453   68.407043   38.128151
H   91.385376   76.646011   84.922989
H    3.663352   59.862801   68.408569
H    3.562240    4.116396   20.219833
H    3.544917   58.652138   17.044380
H   30.209978   21.197264    7.441195
H   21.374931   76.881859   97.172333
H   30.969391   42.848957   36.014671
H   64.472946    6.442204   90.497414
H   14.911324   53.460587   33.288857
H   17.315922   61.240997   84.749298
H   92.522636   85.353333    9.883292
H   49.937012   21.737539   40.760696
H    9.773048   44.470146   19.325047
H   45.553345   25.012836   53.399029
H   27.613029   75.180107   48.744476
H   55.722122   74.813652   58.362534
H   92.541206   50.562969   84.871490
H   67.932854   50.946381   66.163277
H   14.322450   85.901756   42.589314
H   85.245468   22.500856   56.580730
H   54.050777   42.972874   27.701448
H   47.935150   40.097721    8.018684
H   14.827634   20.425549   57.495255
H   93.534874   33.207191   32.657562
H    7.928031   27.491787   56.361469
H   45.237335   30.014324    6.958616
H    7.100044   73.112480   31.541664
H   67.467506   12.066720   58.251526
H   41.759933   96.364731   17.557205
H   24.018511   40.939854   92.012741
H    0.674684   96.907349   32.558132
H   62.699387   48.346844   72.048882
H   67.128464    2.979834   97.466232
H    1.590274   21.541893    5.109539
H   84.723198   64.747253   12.609680
H   21.748852   48.633385   62.744759
H   58.855328   80.052505   10.270044
H   51.497517    5.517158    2.449478
H   70.365868   97.306656   85.997002
H   98.397247   67.619926   37.811523
H   20.628572   98.644981   66.361351
H   18.241722   32.959312   99.964813
H   54.853989   79.742004   54.135262
H   27.440977   26.897213   76.986229
H   22.831606   82.398125   18.240999
H   27.516045   71.356773   74.786507
H   36.246037   73.287582   26.882008
