100
TIME:    6.347, STEP:  6347
H   88.100906   39.969872   93.335159
H   25.186283   48.799458   78.304787
H   88.864761   30.532051   48.839962
H   82.541931   71.153778   92.261841
H   38.321548   81.497467   93.612778
H   29.595020   94.331917    7.310592
H   20.324379   89.917137   86.796745
H   21.024612   37.697849   25.433170
H   97.606499   76.055176    0.565079
H    1.400402    7.517416   56.228458
H    9.872543   21.627630   28.374664
H   13.592499   41.832813   41.142250
H   39.051590   77.774635   94.351738
H   40.814964   85.512642   40.249989
H   57.696663    3.087499   45.674824
H   46.325180   56.597206    6.184291
H   13.719222    1.776479   51.180794
H   36.794765   85.994156   79.504921
H   44.122211   44.618729   97.747849
H   21.518707   71.024696   48.465874
H   87.636749   24.353283   84.974251
H   70.873413   52.509720   78.772614
H    1.000702   43.002480   50.755737
H   29.329819   12.756807   35.689838
H    2.579865   82.811096   83.413918
H   17.613115   39.026588   93.574089
H   14.769615   78.640640   25.901236
H   97.000809   52.696205   76.572159
H   49.180458   24.941349   57.145813
H   44.364780   33.751732   87.957199
H   65.851952   91.203499    7.224504
H   66.510712   77.149551   11.690437
H   17.430931    4.106041   69.584839
H   46.278038   92.058121    4.362934
H   22.996994   79.113106   11.206817
H   24.371347   82.552818   99.471291
H   88.558876   72.094360    8.584079
H    1.660629   42.801029   70.330742
H   77.164276   43.125420   29.240519
H   65.376022   17.998173   37.403103
H    1.479672   73.962578   91.878273
H   65.323380   66.492905    3.986007
H   65.909576    1.561582   59.923515
H   74.065460   19.176962    1.312272
H    6.100899   81.471329   99.239731
H   96.197258   83.976151    8.946596
H   91.320602   70.009354   86.389961
H   56.578381   60.742020   61.294315
H   50.557289    6.792123   91.289291
H   58.997181   27.337664   39.749664
H   43.065777   56.881729   20.334072
H   13.586285   74.785767   57.395149
H   40.528591   58.810791   34.244617
H   29.710083    3.643077   11.892196
H   35.437798   14.825398   54.333813
H    1.500940    5.857295   76.559937
H   98.625038    6.406478   59.639977
H   53.444733   77.491570   50.071762
H   90.851578    6.945588   24.223579
H   40.181892   15.639134   83.086815
H   60.074360   83.406509   19.534344
H   73.650490   68.865097    8.171229
H    4.957788   74.175087   98.237610
H   78.877365   76.337906   54.821102
H   84.246475   53.920559   86.637215
H   11.440754   26.744774   21.468016
H   78.336624   67.792297   73.495193
H   41.935143   80.528725   69.625900
H   73.236824   93.731400   62.161366
H   58.971581   67.379326   88.368164
H   20.486660   63.551270   86.012367
H   50.627415   40.880508   21.319054
H   93.154480    4.359062   99.008606
H   90.487831   47.717075   26.035959
H   68.183830   37.689945   82.543472
H   75.706444   14.355515   68.855743
H   43.226162   76.452171    3.306524
H   30.173931   35.705353   64.962456
H   65.872902   34.875584   88.494850
H   88.262527   63.268562   74.121483
H   35.073471   94.944290   59.334248
H   17.571135   85.632080   56.013721
H   19.336479   13.262555   34.399727
H   86.812935   55.285789   83.716637
H   43.283363   51.877571   32.481827
H    5.211950   42.190308   82.538071
H   91.056496   41.874184   26.192923
H   58.106224   97.180115   29.769295
H   87.400742   40.780983   76.280525
H    5.178159   48.144321   51.105766
H   83.768028   16.151997   67.498825
H   47.912624   72.834473   54.459457
H   92.308517   17.960239    9.827830
H   60.679379   98.238350   54.767441
H   46.856743   81.204178   61.933353
H   18.157806   45.095062   39.618256
H   58.807243   31.920828   72.167496
H   26.026148    0.509171   51.464325
H    6.356707   64.210091   13.408867
H   33.447605   15.760994   86.313820
