200
TIME:    0.776, STEP:   776
H   25.941236   60.696125   24.504845
H   32.741516   40.703148   11.657001
H    6.903599   92.598785   71.749077
H   35.910080   83.238655   30.483429
H    9.519294   97.314087   45.952110
H   72.181580   38.267113   49.684578
H   11.124907   54.923820   60.026058
H   14.900086   12.031096    6.046845
H    9.195589   79.470642   34.643703
H   91.992996   67.390648   74.930489
H   30.876001    6.044075    9.899773
H   32.994232   56.329453   38.281639
H   24.329632    4.797060   39.323662
H   79.069771   55.468349   68.094170
H   93.743912   76.070747   41.659775
H   13.677082    3.881802   42.760353
H    9.421632   32.821995   89.407997
H   23.834717    8.934594   33.977856
H   82.859100   10.297052   50.374245
H   91.761513   72.343834   16.692707
H   64.517632    3.514804    1.284186
H   78.096291   69.302040   49.919357
H   78.954491   58.644302   36.275185
H   19.961304   92.945961   89.905357
H   26.543747   34.261086   26.284435
H   18.217398   86.123917   89.253731
H    9.275752   69.551765   70.632767
H    6.811661   92.240578    2.141639
H   33.643879   40.237740   35.199783
H   68.828171   35.123318   80.084763
H   12.661701   73.842567   16.850132
H   22.179073   76.068832    6.799833
H   14.172310   20.518854   79.726212
H   78.686928   64.162697   47.659012
H   22.266005   67.653061   30.141535
H   15.552668   37.700912   85.622780
H    1.648558   62.860214   89.978859
H    6.402387   58.620274   91.068207
H   33.232788   27.207481   56.345970
H   84.942429   37.484325   42.758881
H   80.663795   80.184860   19.315346
H   40.018265   31.867281   23.937340
H   67.050980   75.468880   70.231178
H   36.087173   89.266731   37.917896
H   47.091003   92.648483   63.706566
H   33.516975   99.889168   48.517254
H   90.074860   99.952148    7.930600
H   77.066689   65.542427   28.378616
H    7.809407    8.411900   61.552776
H   42.936275   20.220358   83.036621
H   65.457626   63.711876    6.626785
H    0.648781   44.923565   75.065529
H   66.633751   79.093834   14.932669
H   14.429182   93.494858   89.640602
H   54.511154   64.464462   73.438576
H   98.434746   59.144775   96.199738
H    3.900818   18.773781   43.904957
H   73.264633   71.039658   95.628716
H   16.871027   84.831711   20.090092
H   30.706409   92.979408   57.085724
H   48.683586    4.918901   26.575962
H   99.570061   17.694628   53.175331
H   86.213974   36.309692   66.801788
H   37.113213   65.917046   15.634911
H   79.964645   84.069672   39.847889
H   17.713583   37.384880   42.497818
H   66.153664   11.855754   96.909096
H   94.339836   92.668556   97.883430
H   35.587891   13.096519   55.195564
H   42.151546   50.972118   50.953968
H   58.230026   85.862701   87.618622
H   17.076336    9.733209   41.012844
H   94.505508   34.929577   81.547577
H   25.327696   97.183098   76.177162
H   85.671646    9.548171   42.410019
H   66.861794    0.153434   59.374939
H   93.162079   49.904205   64.563911
H    6.702665   15.730207   29.639046
H   15.606905   53.571800   23.062368
H   60.198650   87.677628   68.842194
H   66.117180   21.043104   93.175995
H   50.205227   58.950565   71.287163
H    8.908519   19.545771   74.597038
H    7.195151   79.386574   11.320832
H   19.821152    4.991839   42.592285
H   39.767654   67.020538   16.625015
H   59.878136    3.901014    3.000163
H   70.874092   98.595123   31.658939
H   82.091873   73.361801   79.101074
H   20.759468   10.072760   48.968655
H   18.774460   39.519901   78.370392
H   80.321846   93.238220   10.063236
H   72.722763   10.817009   80.464264
H   35.992680   75.176872   83.822258
H   38.706169   49.675774   90.263573
H   47.075050   39.693153    3.860185
H   86.576469   95.739525   21.413353
H   92.160263   36.767120   53.668461
H   24.872520   64.408707   54.780754
H   76.524071    6.636727   27.381266
H   33.780666   95.246216   94.179298
H   10.503022   84.765762   62.907997
H   34.290176   17.581186   37.992702
H   47.631065   68.929108   11.448031
H   24.628214   20.428818   42.465252
H    8.643274    0.530462   18.795900
H   91.049110   36.752209   53.764725
H   61.592655   54.854057   98.015511
H   86.418205   33.323814   25.050922
H   21.584963   20.587091    8.160585
H   54.246635   91.409004    1.172966
H    7.515724   76.823914   96.616570
H   47.784622   86.494568   82.276619
H   61.408501    7.841854   61.132385
H   45.963417    4.288150    7.978786
H   92.164223   90.117989    3.114832
H   10.537276   15.990127   90.428635
H   38.051693   53.378956   23.264397
H   39.217766   77.837326   57.049351
H   84.927711   57.372616   69.338211
H   46.148811   25.321262   69.956047
H   95.162262   14.782581   63.954674
H   45.158760   99.216263   39.930096
H   96.180450   48.031029   94.392815
H   60.877922   95.681328   75.085777
H   67.359428   77.017090   15.182208
H   82.063515   51.692612   50.354446
H   63.704491   91.773827   39.529491
H   99.063850   33.081722   72.675362
H   93.724869   21.608833   75.633141
H   70.245735   66.047516   23.894924
H   61.126457   91.367538   21.967182
H   90.687508    8.672213    1.362725
H   74.638275   26.745419   56.303814
H   30.904850   91.678375   31.786697
H   48.082138    0.938944   75.785057
H   69.780106   87.930367   82.021706
H   95.790245   47.485264   74.729317
H   60.323364   51.829422   71.423317
H   43.738289   83.383690   80.564056
H   77.153488   47.306244   32.224243
H   32.563126   57.296684   58.741917
H   37.775002   66.626015   81.305206
H   33.152412    7.125366   87.006508
H   65.496460   51.990646   66.595520
H   65.579430   71.209946    4.175201
H   57.408257   94.430504   43.444035
H   28.016640   53.466728   65.749779
H   79.514374   42.413353   92.616028
H   26.548134   94.526665   69.938644
H   57.328125   70.412857   47.297779
H   56.350388   92.278191   31.355301
H    1.075852   11.796658   84.649124
H   24.078705   13.445940   62.706898
H   34.866962   68.034927   70.449760
H   79.413780   44.857944   70.552094
H   64.921860   76.958450   87.102463
H   53.666580   28.059982   22.281521
H   87.849937   99.714645   82.726753
H   57.670368   35.073944   98.810532
H   59.220993   62.633568   69.164482
H   18.437662   20.278606   30.900513
H   88.291496   11.200413   37.009182
H   30.949469   35.925724   48.267090
H   53.822044   40.275772   15.091124
H   21.148483   47.384640   59.371799
H   65.670158   88.897530   57.903858
H   24.100445   55.319435   70.177017
H    1.356381   26.427122   35.591278
H   50.933434    6.414830   84.367462
H   69.125244   12.008101   35.931091
H   27.646097   45.538231   59.104080
H   48.029236   54.422138   75.342484
H   64.625717   61.717888   86.675003
H   46.525513   91.004440   74.028725
H   17.454704   50.557777   23.805664
H   29.911427   69.665710    9.329071
H    6.480494    9.712029   71.733963
H   61.893734    8.919007   62.866230
H   60.803658   60.204735   93.946220
H   71.631989    4.397384   29.257214
H   30.038900   30.760342   89.183731
H   40.955303   89.601532   16.686172
H   63.153702   26.212154   96.909157
H   92.454422   65.086395   76.188583
H   10.481323   40.746597   86.636818
H   50.015808   95.343636   11.141638
H   64.670380   89.928658   44.282021
H   91.095619   63.563633   72.669266
H   59.360550   55.357601   72.474991
H   73.425018   13.290855   75.473824
H   43.258904   99.495483   17.797209
H   16.006203   30.275658   70.085518
H   25.739626   84.922546   44.115314
H   66.500687   30.314278   20.062973
H   76.636734   11.698685   22.222912
H   13.024131    0.174783   21.558088
H   13.332026   86.753410   31.850410
H    4.765628   13.111666   54.045265
H    2.417295   16.833103   90.302078
