100
TIME:    6.213, STEP:  6213
H   97.162918   52.258385   93.457840
H   28.886639   41.537785   69.856178
H   86.560410   20.891907   50.413342
H   82.519440   76.674408   99.606323
H   39.521774   70.756775   97.246170
H   31.673435   94.477089   94.040337
H   27.347336   80.869438   76.317772
H   31.556747   26.105549   37.737019
H    0.900485   88.938690    9.000136
H    5.060881    5.593246   50.981815
H   22.336899   16.235815   41.281837
H   18.707260   35.116047   50.680672
H   47.602432   85.877693    7.666679
H   47.449944   85.925667   30.052158
H   56.069099   15.057037   52.118626
H   51.712906   68.317299   17.307644
H   24.494728   92.912956   38.982246
H   33.929150   92.514633   84.150429
H   42.035618   38.996887   90.687576
H   25.128586   73.870888   39.342522
H   95.588501   37.693783   88.611732
H   58.026703   52.331833   90.183960
H    2.789968   44.092293   54.589508
H   41.780773   11.153780   45.642307
H    7.372315   93.437286   82.424294
H   18.223963   42.988152    6.175125
H   26.324600   84.210342   23.242132
H    8.307311   46.441536   72.143387
H   46.266792   12.784140   63.480225
H   39.226505   37.068199   77.304428
H   60.578064   79.186928   17.826149
H   58.049839   80.852463   24.095497
H    7.991970   13.909811   57.513062
H   40.616325    4.338393   10.007860
H   26.331863   89.258797    3.053850
H   12.723257   72.057487   99.892494
H   75.706032   77.001587   98.025551
H    7.198919   45.253620   60.874447
H   82.819855   46.045219   42.226158
H   77.997818   30.542782   26.859972
H   10.637363   69.364098   88.721291
H   76.616135   65.967422   97.144859
H   64.756378    0.757736   50.245033
H   82.622437   16.927816   88.210045
H   17.724380   86.758865   87.773178
H   97.927055   81.420303    8.402201
H   90.273727   62.722122   85.103859
H   56.571224   59.361862   53.003147
H   46.640709   17.889626   96.634079
H   56.184727   25.297586   49.119400
H   43.074978   69.818405   18.921711
H    7.073019   87.219589   66.191353
H   37.748852   58.033813   42.027683
H   32.812881    5.829604    5.979498
H   46.106926    3.082048   53.193905
H    1.334043    5.998250   81.121613
H   90.129402   10.273219   46.895500
H   63.422760   90.146080   53.523178
H   80.282639    1.283108   34.510353
H   49.024101    5.339104   86.898094
H   51.621662   89.638687   29.981625
H   78.406410   70.112350   14.234466
H   95.860695   83.318886    7.426392
H   69.676315   75.607956   58.459606
H   78.928268   64.623367   74.158546
H   19.672115   33.406334   13.544810
H   89.087540   63.159245   67.025833
H   51.191399   72.865273   63.219929
H   66.558907    3.359768   70.565216
H   56.257271   60.639557   88.650330
H   24.742146   72.668488   87.619484
H   61.675831   45.327682   11.508178
H    1.891485   10.986885    2.444350
H   93.438301   56.197376   33.997551
H   61.723011   37.498768   72.385513
H   72.539238    5.767323   77.872772
H   31.056202   88.049583    0.929983
H   23.878368   44.467819   57.561874
H   59.447201   35.269184   87.000191
H   94.834122   70.568062   85.665733
H   32.451172   93.557999   51.325245
H    7.515770   84.762955   67.223595
H   10.860269   11.021844   21.637871
H   77.593483   43.819237   95.956078
H   49.807930   60.259727   45.471664
H    8.296230   37.267746   73.232742
H   82.106941   51.617073   19.803305
H   55.951134    7.902781   31.158653
H   84.619980   48.242012   77.376472
H   17.025766   53.657795   46.316109
H   78.284203    8.916393   64.668991
H   37.997982   62.756256   51.906677
H   83.718826   13.939382   99.465408
H   47.729412   90.108711   45.732010
H   49.173363   93.206436   58.854069
H    7.089954   50.386688   46.539490
H   69.443657   24.231306   79.873886
H   26.284800   93.878326   54.154099
H   12.739968   63.632099   24.633125
H   25.124743   19.199631   99.221870
