200
TIME:    0.131, STEP:   131
H    6.121795   62.836742   13.475744
H   26.992764   31.286798   85.472214
H   20.422316   64.367241   39.979362
H   14.168324   75.699745   47.350018
H   16.367456   80.966660   55.225658
H   93.164551   55.773426   68.776054
H    1.780042   55.381470   47.541584
H    0.445991   84.179504   28.941368
H   83.001846   89.140327   50.378471
H   14.698223   76.425713    0.371824
H    8.394389   92.265694   89.517166
H   30.327072   39.113476    7.548602
H    8.498904   83.390404   65.759056
H    9.555885   52.747059   37.013393
H   24.884468   71.105499   43.246784
H   32.477531   30.457443   56.674366
H   79.079742    2.613537   20.724169
H   39.150547   77.927101   45.460915
H   61.398800   33.647999   40.879253
H   89.709473   81.201561   41.696102
H   56.776962   71.317070   30.834255
H   92.455650   44.648033   74.775124
H   98.269257   63.333977   51.751602
H    6.313036   87.086830   91.930176
H   98.508774    8.320064   49.299763
H   18.751322   57.499252   10.556562
H   96.785149   56.609638   44.699310
H   92.008820   65.632950    0.444466
H    6.477740   59.842842   38.976620
H   97.975014   17.844376    2.396299
H   13.503800   46.895390   16.061548
H   33.908180   60.951645   90.919540
H   29.756989    6.640103   71.847755
H    0.034061   63.459000   36.385094
H   53.219227   94.304977   35.048199
H   36.621769   52.407200   78.226578
H   83.135971   76.781609   85.136635
H   38.306610   41.935760   20.068293
H   57.104362   50.303749   42.008755
H   91.128075   40.136723   67.954193
H   80.471878   10.315535   97.906120
H    7.913928   45.392551   43.063168
H   78.664444   90.285889   46.280865
H   37.524094   57.940380   14.849984
H   25.052876   72.969566   40.430428
H   42.593685   16.675226   41.502426
H   77.920090   31.552326   93.788979
H   92.769470   65.552269   51.566177
H   82.864967   32.888561   61.087746
H   66.017822   17.309610   10.323956
H   80.801178   71.875748   32.188499
H   25.304869   33.821880   61.197765
H   49.237461   97.541580    6.502180
H   24.028845   79.883484   80.089020
H   81.812637   78.809059   94.298523
H    6.702957   75.035309   75.078979
H    5.741556   16.332985   50.823826
H   66.217819   56.045498    7.270755
H   30.481171   72.371841    4.490197
H   45.624298   96.601234   69.009209
H   50.772533   17.503025   45.421131
H   87.978264   16.166670   48.230835
H   68.444389   22.948456   88.562271
H   21.485071   64.996826    1.233867
H   69.596184   74.454117   13.472354
H   43.015392   12.326480   30.904037
H   90.246681   25.461164   83.583138
H   97.951820   91.202110   85.113541
H   12.645431    4.380269   63.359436
H   45.864410   39.730186   50.988415
H   58.512981   74.706886   70.365738
H   35.203705   26.686916   45.527824
H   74.034317   23.778683    3.145489
H    4.314310   11.360543   57.399643
H   77.817795   99.107018   72.737892
H   50.558655   22.924850   63.589741
H   95.888290   25.892385   73.687370
H   30.592470    3.985107   51.694786
H   10.701866   24.837067   37.352604
H   69.918510   91.274849   99.430878
H   38.741886   31.944260    2.751560
H   21.843718   70.550339   91.226891
H   11.424974   12.470662   93.468918
H   28.228550   58.295341   90.298920
H   42.789730   98.171249   60.871189
H   21.596308   89.588058   30.051853
H   30.969961    2.556977    1.521440
H   76.237938   22.601116    7.330956
H   62.353825   71.779564   76.769653
H   23.990078   81.161484   56.064678
H   45.811981   33.951836   81.239311
H   84.814682   87.579117   95.989456
H   42.081711   18.091417   98.834206
H   64.915695   98.349670   66.111725
H   22.362936   58.400635   63.400055
H   73.786018   25.272282   34.186562
H   77.827003   18.049250   93.634819
H    9.891171   26.744940   47.561550
H   39.487770   70.869926   52.494968
H   65.309204   96.156067   27.223795
H    5.003099   77.412659   63.807117
H   86.519066   75.007500   66.465851
H   20.919928   41.153336   28.979551
H   16.638252   67.738235   85.833870
H   25.483231   28.905170   21.553635
H   83.107910   32.109497   48.993908
H   60.494877   28.743345   56.766510
H   65.393196   30.089329   22.956383
H   70.026489   41.465542   93.861885
H    0.865283   29.580145    5.003790
H   45.760441   97.013977    0.719161
H   81.617226   60.603916   89.269577
H   58.987186   79.009789   96.306274
H   63.593407   21.747252   77.764801
H   67.487694   77.429672   30.594503
H   18.486790    8.986097   74.017113
H   37.056454    6.907844   82.909409
H   41.324131   21.631386   36.157310
H   14.722825   53.621288   88.926788
H   67.906113   44.499386   45.276630
H   39.416939   21.035107   91.091568
H   22.992233   30.062160   44.981915
H   29.608526   26.419674   20.795666
H    5.683243   71.241501   22.638403
H   80.177925   11.650859   96.418137
H   43.728985   59.369881   27.635967
H   98.096001   48.680984   75.264343
H   77.812881   86.715080   34.081989
H   91.126343   56.429214   87.374268
H   62.462013   24.665979   64.644638
H   44.208939   89.077606   99.245857
H   85.883804   84.970291    6.756523
H   92.793678   77.291595   96.564339
H    6.265406   10.208247   48.365299
H   99.041405    3.340992   61.425636
H   65.261208    1.766742   85.287430
H   68.712257   86.286766   49.912445
H   90.288612   67.623848   84.920624
H   43.464157   42.809303   71.575867
H   43.388901   14.317705   98.486191
H   45.221378   66.274376   11.389036
H   62.256195   37.698963   43.705925
H   58.509464   54.754745    3.060696
H   62.707695   30.473448   76.318184
H   35.178425   73.382057   45.504292
H   41.946354   60.097553   35.066563
H   42.153282   97.255135   48.062355
H   45.628754   77.476089   69.450340
H   62.271336   69.342819   99.028038
H    5.973866   87.463997   94.073685
H   80.062233   59.458797   52.167068
H   29.199120   10.125706   51.568142
H   71.112114   35.914280    7.291174
H    7.028488   98.640602   78.646088
H    9.290276   51.000443   58.781063
H   60.266327   43.258633   50.707516
H   58.170300   57.614967   79.465134
H   44.496372   38.408760    7.170468
H   17.370520    2.145040    6.647083
H   64.901413   61.391235   74.058105
H   52.885258   88.837677   86.314026
H   48.721798   23.621168   36.488262
H   60.527447   39.322147   37.277374
H    7.273728   16.977570   75.862427
H   59.997849   18.389803    8.753543
H   10.035726   67.907036   62.897667
H   76.776764   99.329964   51.066185
H   23.536995   25.973293   43.505421
H   92.591873   28.524681   37.114315
H   21.498714   11.282274   91.630798
H   81.447327    4.337556   35.985222
H   49.928444   69.495361   57.123394
H   35.566906   82.137833   93.490982
H   72.564873   77.157181   71.719223
H   76.503998   95.856506    4.356281
H   97.541924   47.072075   23.182171
H   36.537498   49.516148   82.348282
H    0.763962    9.096909   63.486431
H   78.389107   23.913462   70.409691
H   91.485580   53.285866   84.847366
H   83.407845   81.283371   44.253613
H   17.029114   29.972988   65.636940
H   70.653046   90.278854    3.912694
H   49.107521   25.018467   73.180290
H   84.113396   93.062050   78.845901
H   96.978508   35.304016   83.408669
H   27.556793    6.391674   96.850174
H   95.657661   62.607613   21.712603
H    9.774939   60.687332   65.297668
H   47.631443   58.866245   64.325882
H   42.613182   34.630596   80.079842
H   48.546474   81.967026   26.012751
H    1.679331   14.930875   55.309322
H   37.007938   59.180546   31.116516
H   88.635162   59.123962   22.172834
H   75.062027   10.115981   31.059725
H    8.736745   82.587257   99.787735
H   32.077282   99.572510   50.040737
H   13.366850   11.306904   82.891930
H    9.144643   38.685478   99.263145
