100
TIME:    6.470, STEP:  6470
H   79.782791   28.690256   93.222549
H   21.789688   55.465023   86.059853
H   90.979950   39.381233   47.395741
H   82.562576   66.086334   85.520264
H   37.219849   91.356461   90.277649
H   27.687222   94.198662   19.491695
H   13.878011   98.222115   96.415504
H   11.357056   48.338543   14.139379
H   94.582924   64.229263   92.823097
H   98.040688    9.283716   61.044407
H   98.431396   26.576834   16.526699
H    8.897606   47.998203   32.386833
H   31.202682   70.336754   82.129814
H   34.724648   85.133522   49.610683
H   59.190620   92.100548   39.759991
H   41.379730   45.839211   95.974121
H    3.828136    9.911822   62.377968
H   39.425144   80.008942   75.240761
H   46.037518   49.779076    4.227977
H   18.205162   68.412148   56.840294
H   80.337753   12.107899   81.635368
H   82.665543   52.673004   68.298019
H   99.358376   42.002129   47.236679
H   17.901325   14.228243   26.554644
H   98.180733   73.057205   84.322304
H   17.052412   35.390228   82.007179
H    4.163174   73.528152   28.342054
H   86.621933   58.437431   80.637375
H   51.854942   36.100689   51.331390
H   49.081257   30.707512   97.735489
H   70.692299    2.233510   97.493202
H   74.277039   73.750610    0.303779
H   26.094852   95.106804   80.665649
H   51.474983   80.785873   99.181335
H   19.935883   69.800270   18.690531
H   35.063320   92.186592   99.084663
H    0.356622   67.589966   18.275854
H   96.576515   40.549770   79.011086
H   71.972961   40.445305   17.321234
H   53.791172    6.483150   47.080982
H   93.073410   78.183571   94.776100
H   54.957642   66.975250   10.265340
H   66.968109    2.299452   68.808006
H   66.210922   21.241476   13.338353
H   95.431389   76.617844    9.765433
H   94.609459   86.322189    9.446302
H   92.281540   76.698380   87.570488
H   56.584949   62.008881   68.904861
H   54.152359   96.605263   86.383255
H   61.578762   29.210272   31.149134
H   43.057331   45.007019   21.630493
H   19.565304   63.372704   49.321022
H   43.080143   59.523987   27.100782
H   26.861992    1.636041   17.319523
H   25.644188   25.604534   55.380146
H    1.654136    5.727911   72.372726
H    6.422687    2.857175   71.338264
H   44.285797   65.875862   46.903671
H    0.552876   12.143237   14.781212
H   32.065536   25.093670   79.588402
H   67.833183   77.685928    9.944527
H   69.284981   67.720230    2.605622
H   13.308321   65.781898   89.803131
H   87.323105   77.007935   51.481281
H   89.128113   44.096287   98.091515
H    3.885100   20.630058   28.740736
H   68.468246   72.045197   79.433487
H   33.438728   87.563087   75.506012
H   79.366554   84.893402   54.446651
H   61.463074   73.565361   88.109161
H   16.580505   55.182480   84.537178
H   40.485958   36.798401   30.324558
H   85.134781   98.275055   95.855530
H   87.779564   39.932919   18.728048
H   74.114616   37.865429   91.867569
H   78.613655   22.238674   60.579308
H   54.397060   65.806786    5.487988
H   35.952694   27.662447   71.754707
H   71.771782   34.514294   89.866814
H   82.230392   56.568275   63.524895
H   37.480507   96.216782   66.685791
H   26.800920   86.429733   45.723995
H   27.116882   15.319327   46.113968
H   95.275566   65.811058   72.481926
H   37.294395   44.183502   20.558319
H    2.380867   46.708778   91.079529
H   99.271385   32.931084   32.058022
H   60.084404   87.338013   28.493988
H   89.953232   33.932426   75.274544
H   94.303482   43.083447   55.502243
H   88.801689   22.793633   70.096359
H   57.013378   82.085373   56.802681
H    0.193081   21.651028   19.339609
H   72.566963    5.700482   63.061157
H   44.730293   70.187180   64.759857
H   28.317093   40.237823   33.265182
H   49.043968   38.979584   65.093719
H   25.788729    6.595174   48.995354
H    0.497358   64.741234    3.106008
H   41.087246   12.604633   74.465385
