100
TIME:    4.582, STEP:  4582
H    7.460758    1.828661   94.951065
H   73.931831   53.156799   67.016846
H   58.515099    3.551887   69.560341
H   82.245682   43.872490   89.007942
H   54.130493   40.025009   41.467087
H   56.971157   96.244072   32.516735
H   12.828215   70.737198   48.771374
H   59.750130   85.003143   87.489784
H   40.993629   45.752823   11.665909
H   49.625938   82.174095   87.115601
H   74.048553   50.609180   98.388382
H   80.958916   53.362572   66.777290
H   51.680191   84.507240   69.731445
H   28.206951   90.952858    5.931460
H   36.235573   60.744629   30.519257
H   17.291878   10.970646   52.695251
H   55.649971   85.034378   90.505882
H   99.051399   71.872002   40.690380
H   16.634583   70.575378    4.760991
H   69.068169    8.512163   28.296457
H   92.374352    0.064004   32.881096
H    1.661148   50.166656   29.078629
H   24.567726   57.357109    1.252879
H   93.324020   91.635559   66.774887
H   65.705475   22.783829   70.378944
H   25.658979   91.199860   59.546970
H   66.968864   52.009960   90.881142
H   45.925678   70.311981   18.227396
H   10.802239   64.806847   40.577980
H   76.687698   77.435051   47.644173
H   96.384895   32.932590   46.865685
H   55.067455   25.916641   75.085365
H   93.106911   33.240868   10.579701
H   71.701813   53.809753   78.719109
H   66.875107   12.556149    3.741256
H   70.943130   44.310810    5.022344
H   19.272764   36.733871   69.509018
H   74.608406   75.101051   45.779903
H   51.666286   81.583977    0.282826
H   31.620581   83.231956   98.536194
H   22.104298   13.404294   50.295635
H   19.816986   17.500166   18.067507
H   50.708286   90.976837   32.436844
H   86.767624   89.558380   28.738752
H   59.200214   51.107719   48.204975
H   18.973614   50.311451    1.774178
H   77.531540   74.022423   69.449883
H   56.484119   42.563080   52.086113
H   98.968979   52.967663   61.698380
H   21.975903    0.472319   63.191841
H   43.195042   27.281254    1.728375
H   27.808535   38.563915   73.262939
H    3.915785   48.576721   36.753567
H   70.581200   32.445152   34.006554
H   75.969177   60.144138   39.319355
H   99.299332    7.713903   36.644714
H   86.730789   57.335075   91.773689
H   84.870499   44.174522   95.532578
H   51.648499   32.370422   59.721504
H   56.652920   79.976105   33.287605
H   48.737000   65.485985   57.146095
H   36.290489   85.293472   88.032990
H   85.132637   94.615280   19.268974
H   57.678291   66.723267    2.736057
H   14.189095   94.887054   22.270952
H   19.865547   14.487906   17.106924
H   19.946157    6.775244   88.280685
H   63.855675   79.586441   85.248695
H   85.268387   20.553024   72.858459
H   23.218012   78.604492   92.084747
H   76.533043   83.640442    7.182560
H   96.160675   99.457092   92.094292
H    8.236082   91.662636   44.267067
H   29.341305   59.422718   30.906517
H   83.087532   35.171825   48.744961
H   33.979454    1.235404   87.619003
H   82.971115   29.408733   72.083748
H   47.251019   51.115444   67.488014
H   81.236031   40.059948   68.807732
H   74.815216   59.409595   26.177727
H    0.534645   76.684555   53.844097
H   85.118202   74.151505    3.633106
H    7.695326   83.746521   66.311340
H   65.382935    4.250412   44.921593
H   29.224405   62.279488    3.578963
H   45.838398   77.360115   59.971207
H   73.176140   70.204193   42.031036
H   29.709269   38.448097   48.092308
H   50.773544   39.053307   90.715950
H   61.229176   20.759148   88.012787
H   11.537040   20.847046   30.225260
H   17.319479   40.090164   20.834635
H   79.168648   65.001686   73.337631
H   90.095261   91.164841   35.759518
H   77.370430   39.302269   21.375881
H   72.375992   14.793604   30.782860
H   98.905113   30.632061   73.673843
H   23.684652   55.250671   82.714394
H   90.437317   56.601498   61.247482
H   23.816973   61.049168   56.342365
