100
TIME:    0.385, STEP:   385
H   91.286781   86.714912   98.793533
H   90.560722   25.618809    2.286196
H   86.379272    1.602682   18.819336
H   81.541229   16.788073   19.059755
H   91.722641    3.616968   55.266121
H   22.046238    0.794625   16.873137
H   32.793034   87.334511   20.560274
H   89.626053   21.909672   72.845268
H   44.163963   49.277252   75.853447
H   64.319145   21.914066   22.765703
H   64.443268   81.733917    2.664691
H   41.146748   42.988640   65.524300
H   18.772873   38.414459   86.862999
H   36.018925    3.890224   86.538567
H   85.185234   35.633423   32.265354
H   86.043716   78.062813    1.081517
H   93.113136    7.457664    8.408416
H    9.371800   75.978043   86.199020
H   51.259361   94.503372   83.645889
H   82.227791   97.459747   42.453499
H   41.430099   17.889099   46.792854
H   99.264015   44.608093   86.473579
H   80.603722   91.491035   21.334911
H   83.270844   41.299229   78.481842
H   15.813810   55.641125   39.401505
H   44.893658   16.137756   53.086899
H   28.879423   26.472641    7.606004
H    0.056414   74.409683   79.500961
H   19.542755   84.022362   38.972534
H   15.756360   81.310989   13.995090
H   31.246553   56.567406   78.946251
H   90.066589   41.873886   63.622704
H   97.476135   40.313408   32.480797
H   94.369011   38.439667   55.531624
H   71.202049   29.817245   48.171524
H    6.029073   14.729399   19.319601
H   16.725861   90.435890   38.801708
H   48.076607   51.907627   49.608997
H   33.411785   72.289375    5.225719
H   26.931072   76.141289   68.326103
H    8.931896   69.389458   51.410885
H   97.019554   29.136461   20.887945
H   14.557385   65.808670   29.282402
H   54.774384   19.223734   18.375172
H   23.259914   16.701614   89.052673
H   73.034370   70.441704   84.828072
H   40.145313   46.510128   30.913031
H   56.259975   99.347015   92.399582
H   76.282646    0.564390   29.115763
H   33.964466   36.609341   56.736404
H   43.515247   32.474709   57.476261
H   23.842840   28.013485   48.788193
H   16.865381   24.241089   80.510384
H   67.772079    0.920219   48.805073
H   10.109150   92.255814    3.673042
H   94.047958   12.127327   79.520493
H   20.659531   78.437859   92.604057
H   97.391052   40.528328    3.637928
H   20.641365   55.035965   81.927216
H   33.612495   57.381195   52.659264
H   83.986557   60.664963   84.377991
H   85.246735   24.361832   77.935501
H    0.346547   80.899223    7.145486
H   69.477608   43.888786   16.687147
H   47.604034   30.094524   31.415163
H   77.694252   23.133625   68.950066
H   56.679497   61.670742   85.649704
H   53.771233   39.556198   84.607826
H   76.091423   22.122673   36.086124
H   38.185562   67.509422    0.921168
H    9.806490   69.209175   57.529942
H   42.221889   38.748192   84.809731
H   81.888824   99.264259   51.877422
H   21.716805   25.015806   80.326912
H   80.733688   29.191507   30.583961
H   34.760380   32.247101   70.022995
H    1.910038   93.175163   97.846008
H   50.068329   25.546188   35.702450
H   80.007118   52.374348   21.981342
H   80.644363   87.986565   87.753143
H   18.415958   33.264660    2.999532
H   70.210808   46.741898   54.586601
H   42.155903   13.683457   66.569214
H   76.654816   45.106541   28.264656
H   33.583893   24.801598   10.430984
H   42.432194   23.195530   68.518806
H   92.867989   75.360283   41.901440
H   62.152908   74.470024   91.737175
H   63.672798   72.736061   25.050831
H   32.296944   93.444855   37.975338
H   39.778355   94.220840   41.592236
H    6.772836   24.461573   40.859680
H    9.986485   39.166771   48.699608
H   84.439522   36.585609   52.776424
H   49.935688   15.243198   24.933327
H   25.721039   80.528130   47.563255
H   32.042473   89.774879   15.047323
H    8.278749   19.515717   49.875511
H   90.371666   38.509876   12.802670
H   63.151287   68.815315   60.605087
