100
TIME:    3.105, STEP:  3105
H    7.344084   37.276939   96.303299
H   14.899025   73.094025   73.862473
H   33.126907   97.290680   86.891472
H   81.997772    4.723448   69.968811
H   67.359848   21.636944   81.515747
H   79.872444   97.844215   86.244530
H   90.237434   71.003059   33.267982
H   75.839417   57.222996   23.102886
H   77.301109   87.760223    4.637648
H   89.990120   60.966560   29.278299
H   11.435486   91.179108   40.660130
H   37.331963   79.328369   71.911842
H   45.752899   73.850510   16.517479
H    1.339925   95.505379   93.531334
H   18.269093   92.676468    1.516890
H   76.678879   40.154510   75.299171
H   74.421486   87.342422   56.048748
H   67.496178   43.704582   91.898621
H   93.628609    8.610461   26.945932
H    8.866402   39.876942   27.735437
H   80.021622   47.105301   72.966080
H   60.059723   48.205917   54.858841
H   44.287804   69.369453   43.513306
H   30.553391   73.921295   76.469841
H   18.531582   39.917633   59.470924
H   32.421734   35.090931   98.140038
H   94.331024   13.405278   61.581814
H   70.550224    1.370617   69.408470
H   78.685822   30.801550   10.397612
H   20.052826   13.991498   30.226738
H   38.256382    0.487445   63.721230
H   61.808784   66.721046   11.818626
H   89.069427   41.305321   77.519875
H    9.294473   89.168098   40.941650
H    3.588617   24.206085   13.801910
H   42.522243   28.398539    9.966519
H   77.608467   90.823227   53.127132
H   35.655907    2.123998   41.552258
H   14.008536   13.764730   43.414398
H   70.736389   21.503305   82.329567
H   23.046824   62.721142   15.498193
H   52.561455   51.213570   48.676392
H   37.986019   82.119705   25.751350
H   81.084122   64.812500   84.324181
H   87.319725    9.385105   21.814299
H   38.028843   22.139912   95.776497
H   65.992477   93.697601   55.267029
H   56.405239   27.352171   60.697731
H   55.789787   75.292900   20.613836
H   91.001762   78.002464   66.495514
H   43.307728   69.875748   86.155457
H   56.029636   75.618942   70.225456
H   73.286522   40.012573   22.535358
H    4.791142   56.548721   68.831635
H   93.568161   30.698395   26.757200
H   97.451279    9.268713   86.925278
H   93.095818   99.952980   51.298820
H   94.851799   83.658493   33.579056
H   35.161324   69.962494   73.111519
H   54.119797   66.449722   75.297005
H   55.566628   34.175251   72.304794
H   88.712090   99.041183   54.864594
H   84.859077   95.403130   20.551315
H   56.255173   58.684929   42.841061
H   55.566593   12.852429   84.724007
H   10.600090   87.914162   29.775780
H   38.448952   55.708645   16.971693
H   65.882164   95.114868   14.639556
H   11.653944   26.680824   65.493813
H   93.293030    4.314448   95.194885
H   23.434875   84.135307   24.902393
H   17.945997   48.476273   83.955627
H    4.539291   64.718468   82.135490
H   61.861217   52.889740   18.669167
H   11.876702   33.064594   36.778477
H   99.059364    6.573597   87.002380
H   48.869221   57.426804   45.963093
H   77.858871   47.692776   85.917389
H   10.409818   44.398365   52.325035
H   47.250343   39.848988   53.422653
H   71.641739   61.404308   65.567322
H   74.296509   64.505569   27.139647
H   14.252089   59.084808   25.635685
H   63.767910   77.860443   79.822784
H    1.140987   54.666019   46.757454
H   79.830566   23.105431   57.403851
H   74.530647   77.594124   71.601669
H    5.938124   56.700546   63.451431
H   20.120728   21.290720    2.796833
H   91.814606   81.527542   35.214195
H   51.092010   41.092602   99.033646
H    8.030249   29.019457   92.688789
H   84.491196   20.681967   59.118858
H   47.338322    1.573328   36.172989
H    2.905623   71.603302   87.437035
H   50.381866   73.118355    7.071646
H   16.142227   45.870068   58.618263
H   18.264448   42.674896    6.353701
H   60.798393   50.234730   84.960426
H   32.074383   98.955910   98.624634
