200
TIME:    0.571, STEP:   571
H   19.642122   61.376476   20.999472
H   30.914501   37.710384    3.334569
H   11.200199   83.625969   61.651726
H   29.000044   80.842567   35.844128
H   11.695831   92.118393   48.899517
H   78.850586   43.831135   55.752216
H    8.154822   55.069275   56.058125
H   10.306151    3.179487   13.323307
H    0.870754   82.543953   39.644676
H   99.209412   70.262383   83.016502
H   23.730749    1.665023    3.421578
H   32.146530   50.857708   28.513657
H   19.298161   97.993065   47.725609
H   88.758911   54.603443   58.215786
H    3.641156   74.492645   42.164173
H   19.652367   12.328323   47.182636
H   99.778595   23.220865   99.361458
H   28.702356   99.079140   37.627510
H   76.038383   17.718596   47.356457
H   91.109314   75.159081   24.639523
H   62.057419   93.281487   10.675981
H   82.660118   61.466270   57.819252
H   85.093292   60.134819   41.194046
H   15.619178   91.076950   90.548172
H   17.633492   26.016321   33.599384
H   18.387094   77.025978   96.024399
H    5.305734   65.438377   62.390350
H    2.106661   83.783890    1.602228
H   25.009674   46.468819   36.400173
H   78.091896   29.631409   87.176056
H   12.929345   65.277962   16.599497
H   25.906929   71.264145    1.752450
H   19.125580   16.107910   77.222206
H   85.471672   63.939041   44.075829
H   32.104115   76.123825   31.701260
H   22.249058   42.375004   83.272049
H   95.764755   67.284843   88.439857
H   16.542528   53.317444    0.285025
H   40.819878   34.547981   51.789181
H   86.908409   38.327335   50.766693
H   80.602798   89.761391   12.510950
H   29.814562   36.166019   30.016317
H   70.742081   80.178162   62.619061
H   36.543869   79.310143   30.586449
H   40.086514   86.393944   56.308723
H   36.401821    5.224282   46.287735
H   86.211716    9.995660    3.436274
H   82.057495   65.545555   35.748306
H   99.881264   16.191174   61.404976
H   50.272339   19.295237   91.709145
H   70.334259   66.306595   14.750938
H    8.485141   41.395123   70.658104
H   61.103764   84.954239   12.255252
H   17.480307   89.168762   86.604828
H   63.188370   69.023598   80.068481
H    1.062469   64.195770   89.486938
H    4.485853   17.998024   46.103977
H   71.024948   66.274071   99.329201
H   21.196732   80.871597   15.132095
H   35.447754   94.130531   60.875359
H   49.347515    8.918507   32.565754
H   95.885216   17.208998   51.603485
H   80.566277   32.063362   73.717911
H   32.145866   65.624573   11.057789
H   76.669243   81.013565   31.464737
H   25.755413   29.420734   38.812973
H   73.811134   16.180082   92.673714
H   95.487831   92.202477   93.824783
H   28.296204   10.326238   57.790283
H   43.331604   47.399101   50.964916
H   58.319958   82.317055   82.135147
H   22.837816   15.121473   42.447838
H   87.999161   31.385494   88.412086
H   18.648914    1.689082   70.208839
H   83.175461    6.229699   52.049110
H   61.680176    7.390864   60.714527
H   94.028549   42.272541   67.463615
H   14.295442   11.997269   36.649010
H   14.047050   44.440186   27.607426
H   63.288383   88.820930   78.564178
H   57.416508   24.507812   96.219589
H   41.190964   62.637756   77.624596
H    9.708323   17.297092   80.595078
H   13.880177   72.683159    4.639559
H   27.121243    2.824028   48.401859
H   33.992489   74.193161   20.892460
H   50.690266    3.473840    2.530173
H   72.578880    6.224904   23.926786
H   75.817001   72.862877   78.362854
H   21.786251    0.883522   51.223980
H   27.367609   37.750206   79.282219
H   81.749802   91.439590    5.590175
H   62.983658   13.129030   86.302773
H   45.185242   82.541870   78.193329
H   33.512039   52.448792   81.725555
H   55.564583   35.109776   13.498752
H   83.795631    2.830528   12.584502
H   97.795456   33.581982   51.727505
H   29.517677   66.462273   54.054264
H   72.959656    3.305840   27.331217
H   24.634245   89.578186   84.526131
H    2.880546   81.664299   64.038788
H   30.040716   25.073261   35.128189
H   37.780830   68.550613    3.306881
H   24.899963   23.122852   35.818924
H    0.527068   10.567211   28.393936
H   81.338074   34.206757   54.718781
H   62.800865   46.983097    5.942381
H   81.208435   35.911495   15.138126
H   14.999633   23.445349    7.157263
H   51.549473   93.190430    1.028733
H   99.284767   71.668884   94.281479
H   51.345127   84.115685   86.735657
H   62.102928   12.261396   66.418365
H   52.804466   95.751816   15.166853
H    0.530210   96.114464   93.866661
H   18.965939   13.103521   88.038803
H   39.091770   43.288643   27.362144
H   31.432800   70.140755   67.180573
H   79.517746   53.281124   61.690357
H   44.009224   23.958996   76.673538
H    4.007140   19.638882   57.924572
H   40.216438    7.862361   33.848381
H   99.200584   55.407757    3.370218
H   67.012032    0.756662   81.865829
H   59.848980   71.408493   19.140408
H   87.159111   50.735428   58.271545
H   68.188553   90.166008   37.798115
H   96.541077   40.502243   77.347107
H   83.788612   22.580484   72.140671
H   61.970474   73.367157   16.060719
H   68.995071   89.334305   17.132778
H   91.356911   98.698761   99.837349
H   84.690269   21.489510   53.781040
H   20.777782   95.385117   41.206825
H   53.542152    1.202043   78.805191
H   69.440712   87.407982   71.816437
H   94.041664   53.886040   77.968414
H   54.965012   48.962563   71.471802
H   43.627243   93.215157   86.260239
H   67.004524   53.334782   25.602158
H   42.000458   51.067951   53.963036
H   44.365025   62.853348   88.219765
H   42.545952   14.546082   83.609444
H   55.860493   58.789467   59.892109
H   58.068027   67.678375   13.993412
H   52.559776   95.328255   44.911873
H   33.614288   61.097610   66.925926
H   74.034027   50.972485   94.653954
H   20.013243   92.288544   77.610191
H   64.553200   66.931335   48.845383
H   47.720875   97.950912   37.779537
H   91.552483   19.461948   91.845207
H   18.659746    8.740373   67.772980
H   26.737938   62.620468   66.741455
H   73.328156   44.349636   64.244377
H   62.776012   70.810265   84.675095
H   50.752018   31.349129   17.478788
H   97.232529    0.487143   90.329483
H   59.968704   43.438354   90.943481
H   57.207310   70.962006   74.615112
H   28.063068   21.340971   32.676464
H   79.467262   20.138430   37.094421
H   23.424549   29.903442   57.037365
H   55.784897   33.319767   13.076854
H   17.616522   53.907410   60.492424
H   69.200165   92.213264   55.730644
H   23.921364   45.992367   61.700001
H   98.570572   27.093788   36.075344
H   41.578213    7.961847   86.675964
H   73.041565    9.570176   35.948296
H   34.728249   53.152691   58.474560
H   44.068340   63.231514   81.110611
H   67.150055   66.620743   81.918800
H   56.053558   92.546570   83.667816
H   11.126777   49.448784   23.604305
H   32.017387   63.261112    0.754283
H    4.663585    9.516525   69.112656
H   67.136665   13.684790   65.263512
H   70.555099   58.005714   91.054337
H   75.374702   97.050888   34.023357
H   25.904007   30.510098   81.699867
H   50.394981   89.818932   12.624397
H   58.689190   25.832878   89.367424
H   89.803398   73.977882   77.033157
H    6.189790   39.016785   85.610817
H   42.877594   98.854874    6.599316
H   74.519051   81.245186   37.108616
H   97.032661   62.649460   70.326355
H   55.632694   56.472752   69.884964
H   63.632622   20.073254   76.937752
H   44.939449   93.924423   20.408350
H   11.452736   25.398634   65.388748
H   29.320854   76.741127   39.983940
H   73.535675   39.470795   20.733549
H   76.136246   11.195655   25.031511
H   11.661473   94.584938   14.638837
H   19.289879   90.827698   37.631832
H    7.499350   12.538059   63.213585
H    4.555453   23.778551   93.150169
