100
TIME:    6.964, STEP:  6964
H   46.375076   83.388771   92.770279
H    8.148079   82.233101   17.207344
H   99.475098   74.922157   41.595371
H   82.645493   45.734161   58.443562
H   32.795135   30.952650   76.882904
H   20.025005   93.663475   68.415237
H   87.986893   31.580288   35.047024
H   72.529625   91.076721   68.783302
H   82.439461   16.733322   61.729221
H   84.547951   16.377718   80.386513
H   52.480713   46.454121   68.940971
H   90.043716   72.760010   97.224434
H   99.679420   40.461315   33.043388
H   10.265804   83.610878   87.203346
H   65.190742   47.974022   16.004482
H   21.516521    2.632010   54.968262
H   64.103645   42.584774    7.348748
H   49.989429   55.970764   58.116081
H   53.729885   70.503189   30.252445
H    4.897102   57.921658   90.474144
H   51.023087   62.930061   68.225548
H   30.025803   53.328796   26.229324
H   92.762764   37.984459   33.103226
H   72.002647   20.137911   89.866287
H   80.512032   33.880142   87.970619
H   14.771420   20.802025   35.539345
H   61.566410   52.993050   38.145016
H   44.939392   81.495689   96.964340
H   62.596367   80.920692   27.979483
H   68.023849   18.481133   37.006187
H   90.132393   46.530663   58.409492
H    5.468538   60.100658   54.571693
H   60.892979   58.962852   25.169073
H   72.347267   35.513596   78.369354
H    7.641036   32.397499   48.747673
H   78.006401   30.879524   97.531868
H   47.736908   49.499146   57.201267
H   76.156502   31.508129   13.872214
H   51.120960   29.681673   69.449020
H    7.262840   60.237789   85.947739
H   59.311417   95.136177    6.414073
H   13.326080   68.912476   35.484814
H   71.219452    5.262901    4.491795
H   34.668560   29.533102   61.637749
H   52.579765   57.126316   52.038639
H   88.232445   95.744492   11.453253
H   96.140915    3.563457   92.311790
H   56.612667   67.096924   99.470810
H   68.592293   55.690624   66.679337
H   71.949951   36.729969   96.608711
H   43.023411   97.313889   26.837257
H   43.578075   17.531319   16.893227
H   53.327839   62.388367   98.409950
H   15.423317   93.577499   39.117691
H   86.310593   68.897423   59.582493
H    2.269413    5.208271   55.555801
H   37.738941   88.602974   18.321938
H    7.502168   19.223642   34.179794
H   39.512581   33.019115   76.858040
H   99.467613   63.065548   65.537865
H   98.994621   54.712112   71.426895
H   51.751961   63.122147   80.255554
H   46.846897   32.072670   55.928070
H   21.244682   79.698944   38.067692
H    8.735068    4.640722   44.096272
H   73.537964   96.072380   57.949875
H   28.834124   89.125946    3.283445
H   99.314476   15.815871   99.122070
H    3.985643   49.397705   23.462353
H   71.472374   98.410088   87.068939
H    0.893105   21.571243   78.612434
H   99.783211   20.387218   66.507790
H   52.925583   73.840973   83.191956
H   76.902458    8.668312   89.376770
H   97.934196   38.570217   29.316944
H   90.289772   53.900799   27.340929
H   99.262299   23.048534   14.248980
H   59.161709   95.361092   99.034157
H   95.463219   33.063259   95.376976
H   58.003769   29.658016   20.966240
H   47.147789    1.327744   96.211517
H   63.868523   89.633316    4.396560
H   58.365005   23.580725   93.159073
H   29.262066    8.083460   27.363468
H   13.240431   13.282037   72.670708
H   91.013107   64.855957   25.384659
H   32.264606   97.012932   55.613777
H   68.029289   47.808025   23.372025
H    0.204723    6.428267   71.234261
H   50.628071   22.757656   73.161591
H    9.018330   49.466934   80.528732
H   93.564377   19.238731   66.214561
H   31.859196   36.474194   57.541389
H   20.310612   35.670616   96.370880
H   36.189919   25.936806   76.111847
H   69.119431   20.730978    7.749283
H    9.833033   67.329407   36.683594
H   24.835192   31.038483   39.079323
H   76.964226   66.874443   61.730312
H   71.770988   99.928146   26.876049
