100
TIME:    7.138, STEP:  7138
H   34.607986   67.432045   92.610977
H    3.342990   91.661110   28.178589
H    2.466354   87.440620   39.552326
H   82.674698   38.565582   48.905369
H   31.236307   44.899517   72.164917
H   17.326168   93.474968   85.646378
H   78.866867   43.330120   48.654049
H   58.853569    6.130291   52.807060
H   78.162209    0.003680   50.775898
H   79.795448   18.876101   87.199318
H   36.295654   53.455433   52.180710
H   83.403488   81.481781   84.838722
H   88.583076   29.931065   15.752041
H    1.650587   83.074562    0.444014
H   67.304146   32.431480    7.637150
H   14.519855   87.413330   40.524902
H   50.111641   54.092999   23.188654
H   53.710453   47.503876   52.085182
H   56.439342   77.801865   39.418934
H    0.209645   54.227184    2.320859
H   40.697678   45.607323   63.502392
H   46.707352   53.559784   11.411606
H   90.439613   36.569328   28.124529
H   55.835503   22.219454   76.944260
H   74.288643   20.080627   89.255653
H   13.951015   15.673172   19.164972
H   46.561512   45.759422   41.597881
H   30.258327   89.617424    2.715603
H   66.379784   96.707497   19.754866
H   74.695938   14.174534   50.838890
H   96.979713   62.132942   44.643166
H   16.454769   55.293728   38.463631
H   73.148933   46.231987   40.844368
H   79.699043   19.567490   71.038818
H    3.310517   19.223244   59.334602
H   93.132103   44.507843   96.984932
H   64.425125   43.127075   70.911835
H   68.964027   28.323421   26.150398
H   43.775822   25.890955   52.586929
H   90.873665   43.947857   99.637070
H   47.419540    1.107117   10.513107
H   98.662071   69.594818   44.367214
H   72.716888    6.306660   17.059681
H   23.558590   32.453636   78.650993
H   37.487251   50.261738   66.928047
H   85.986290   99.063278   12.160154
H   97.500290   13.026570   93.981804
H   56.623287   68.889069   10.236670
H   73.679329   41.280453   59.738274
H   75.603271   39.378361   84.443367
H   43.011463   80.515518   28.671219
H   52.035595    1.384848    5.471502
H   56.937351   63.397278   88.304909
H   11.394310   90.739273   46.796036
H   72.456650   84.145256   61.062672
H    2.486130    5.025240   49.632431
H   48.769260   83.582314   34.870735
H   94.545822    2.791055   29.697763
H   53.235100   40.372219   63.500587
H   87.984612   76.439026   60.588890
H    9.970816   46.620911   57.860298
H   45.576363   61.502579   72.383392
H   58.660450   20.198719   43.996368
H   33.193043   80.646790   33.343067
H   15.641463   90.744019   60.299915
H   62.848816   87.422295   68.238113
H   14.873316   95.142242   11.684535
H   87.295158   25.767584    7.440276
H   12.658041   36.895172   12.548961
H   74.998253    7.161748   86.702545
H   95.367912    9.732291   76.525581
H   85.464638   14.597182   79.259895
H   41.580643   65.236023   78.731506
H   73.071251   97.655884   79.038086
H    6.316578   38.825504   42.509586
H   94.402412   65.053123   15.632924
H   15.065431    7.987881   17.334787
H   67.336548   83.984291    8.643704
H    3.807486   32.552166   97.317802
H   49.470505   20.178898    5.976144
H   50.552956    3.128243    6.611089
H   76.925941   90.761703   89.839272
H   69.370781   26.490637    9.729710
H   41.232418   22.973351   11.471695
H    4.768232    2.397425   55.803307
H   87.009323   71.246613   37.467697
H   43.885670   84.361717   63.910744
H   70.827690   33.883724   21.567932
H    3.816061   96.740318   69.811165
H   35.243504   15.598370   79.382324
H   16.139118   58.861755   84.203293
H    6.438616   32.324722   69.530693
H   43.012974   41.695309   70.997078
H   37.126701   46.227013    8.103337
H   33.181770   10.350456   80.110321
H   83.491104   13.860322   98.761726
H   96.021812   77.314972   26.676434
H   24.499331   39.647488   35.586632
H   68.675224   67.625816   47.155529
H   82.579613   95.462387   10.113639
