100
TIME:    2.884, STEP:  2884
H   22.289032   57.543816   96.505630
H   21.046608   61.112221   59.921833
H   29.328131   81.390793   89.484688
H   81.960678   13.829210   82.081726
H   69.339325    3.922819   87.508133
H   83.298592   98.083641   64.359001
H    1.820744   56.080215   15.985496
H   93.209579   38.104351   43.395054
H   82.733711    9.008574   18.549129
H   96.029716   57.793327   20.623568
H   31.992371   82.286636   61.947094
H   45.767502   68.250717   87.643120
H   59.809883   87.221252   38.482849
H   12.282271   96.186562   76.714211
H   15.580612   12.416928   12.140454
H   85.564606   59.483917   93.643898
H   92.192940   72.723969   35.930248
H   62.774673   54.451759   99.560242
H   90.185600   99.338913   15.303438
H   14.820007   44.569347   12.688715
H   93.136078   69.106781   78.965210
H   38.872238   47.912537   73.679047
H   47.238472   71.166832   49.836166
H   51.086670   71.270752   92.882301
H   26.435158   57.444603   57.840164
H   33.435078   41.675137   18.854376
H   13.387894   22.592093   57.196278
H   89.198448   91.055092   62.103863
H   73.880447   10.751227   20.843821
H   11.579129   19.461349   12.658459
H   29.558050   80.669098   81.206047
H   47.854652   72.828087   32.277718
H   73.503387   57.474983   57.610451
H   99.956444    9.421356   50.252274
H    9.082501   40.911926    0.345170
H   23.307110   11.037649   10.726106
H   56.411469   98.916489   35.713131
H   44.789490    6.168732   25.957554
H   23.337616   18.579378   64.831192
H   91.552933   42.192963   64.942543
H   38.150372   55.138767   10.291949
H   72.423668   41.294266   38.293411
H   36.082417   80.794434    9.788352
H   95.196747   61.108513   62.715271
H    6.490351   18.104229    2.902202
H   40.880032   17.924671   94.879494
H   64.265915   81.679108   53.144234
H   56.393436   25.076784   47.023491
H   49.330353   93.597160   29.429590
H   86.368370   74.640388   81.953644
H   43.324589   91.211609   83.825272
H   45.289204   96.125244   84.732628
H   68.703712   38.731140   35.370987
H    9.908443   60.155281   59.079254
H   11.164085   11.330207   24.878046
H   97.174759    9.501005   94.448639
H   79.084358    6.330148   30.279945
H   11.307830    4.529131   39.271317
H   17.732147   60.624889   90.077019
H   68.703384   49.462543   81.582771
H   41.625984   44.452007   89.536697
H   96.555809    1.098433   64.864685
H   69.856194   10.483873   35.705948
H   41.078621   57.482742   48.841877
H   46.793835   30.503403   64.143517
H   24.176369   98.900764   16.709377
H   56.179939   48.068943    6.301268
H   81.148079   82.475891    4.074477
H    0.638985   42.560478   79.353523
H   88.814758   93.199287   95.660248
H   30.453251   99.171913   27.553780
H   36.168289   55.810791   67.775848
H   18.949461   75.651115   87.800774
H   66.724663   66.875565   31.803856
H    1.221705   32.749294   20.024822
H   93.835838   92.409904    1.873608
H   28.803125   76.581436   42.054722
H   67.475891   62.144306   73.713425
H   99.812378   45.047512   49.858276
H   58.088570   51.886028   72.462051
H   67.318588   59.117962   52.358448
H   57.714798   63.062271   45.619484
H    0.269693   55.395630    4.586689
H   48.564381   58.949188    0.008725
H   11.902181   68.489777   68.180992
H   84.915833   14.987720   42.057003
H   59.770561   93.662621   61.063568
H    2.381304   74.394440   65.750862
H   15.533745   33.595116    4.604960
H   11.353807   90.618973   27.314335
H   42.047791   29.159897   94.366531
H   91.677872   12.399698   88.476921
H   70.324615   14.050426   42.028587
H   25.977169   88.168755   21.272350
H    6.726950   91.398071   82.358513
H   32.128189   81.845589   18.486847
H   33.683609   33.187252   71.328056
H   17.453436   40.793213    9.889866
H   71.326378   49.282085    3.471849
H   18.347872    4.626727   19.914385
