200
TIME:    0.323, STEP:   323
H   12.021606   62.199535   16.758825
H   28.704067   34.089870   93.266647
H   16.398024   72.771049   49.436394
H   20.640318   77.943886   42.329266
H   14.328911   85.832870   52.465160
H   86.918457   50.562244   63.092579
H    4.561744   55.245239   51.257893
H    4.748610   92.470520   22.126183
H   90.799210   86.261909   45.694633
H    7.939435   73.736259   92.798607
H   15.086711   96.367256   95.584549
H   31.121017   44.238232   16.697083
H   13.211307   89.762474   57.889915
H    0.480449   53.557117   46.265347
H   15.614578   72.583527   42.774372
H   26.881096   22.546555   52.532520
H   88.111969   11.605799   11.402269
H   34.591221   87.157082   42.042702
H   67.786980   26.697035   43.705669
H   90.320312   78.564842   34.253231
H   59.081161   80.901543   22.037868
H   88.181236   51.986900   67.376198
H   92.519745   61.937981   47.144669
H   10.366263   88.815903   91.325821
H    6.854068   16.042170   42.448689
H   18.592386   66.019691    4.215254
H    0.502985   60.462177   52.419037
H   96.415070   73.553360    0.949665
H   14.564393   54.006905   37.852352
H   89.298744   22.987808   95.754791
H   13.253129   54.916874   16.296289
H   30.416725   65.451645   95.646591
H   25.117828   10.771512   74.192970
H   93.679558   63.668472   39.741051
H   44.005360   86.371384   33.587749
H   30.350040   48.029514   80.428238
H   88.646713   72.637566   86.578041
H   28.809420   46.902313   11.435602
H   49.998405   43.428505   46.276577
H   89.286766   39.347172   60.454193
H   80.529007    1.346608    4.279230
H   17.470568   41.366428   37.370052
H   75.207413   85.875244   53.410259
H   37.096359   67.265099   21.716805
H   31.612812   78.827477   47.359138
H   39.891781   11.678437   43.590561
H   81.538254   22.145832   97.998940
H   88.095154   65.549339   44.663834
H   90.290260   25.602428   61.226173
H   59.147186   18.176065    2.200914
H   76.233795   69.445572   24.579369
H   17.965269   37.126568   65.326195
H   54.414951   92.046951    9.014075
H   21.171301   83.935242   82.932281
H   73.685684   74.539040   88.089050
H    4.241653   70.305328   81.366089
H    5.193613   17.059547   48.764256
H   68.315475   60.508877    3.805393
H   26.429779   76.080826    9.133934
H   41.183624   95.523109   65.459892
H   50.150707   13.757053   39.811512
H   91.427971   16.621504   49.702271
H   73.733940   26.925873   82.084732
H   26.137049   65.270752    5.520641
H   72.682610   77.316422   21.323608
H   35.483898   19.785740   34.355209
H   83.074806   21.411238   87.549934
H   96.876625   91.638634   88.914810
H   19.474808    6.974874   60.929260
H   44.759186   43.076622   50.978161
H   58.428753   78.027687   75.501480
H   29.807802   21.640163   44.183830
H   80.128067   27.098019   96.716469
H   10.569376    7.140309   62.988754
H   80.155685    2.215157   63.710060
H   55.411682   16.146286   62.335102
H   95.076767   33.040089   70.971550
H   23.481020    7.481323   45.129356
H   12.161583   33.391327   33.100163
H   67.025444   90.204048   90.325409
H   46.890812   28.699265   99.901596
H   30.285978   67.097702   85.291344
H   10.675890   14.576741   87.851242
H   21.967442   64.573662   96.556732
H   35.952572    0.201528   55.430027
H   27.005610   82.870285   26.055027
H   39.575184    2.957063    1.961602
H   74.641258   15.455228   14.572768
H   68.226585   72.257103   77.468384
H   23.028408   89.767441   53.952374
H   37.763485   35.609306   80.385307
H   83.477280   89.263687    0.178906
H   51.202560   15.926012   93.365944
H   56.306000   91.451721   71.383698
H   27.228048   55.803467   71.396637
H   65.834846   29.565006   25.159184
H   80.431496   11.408381    1.903836
H    4.612972   29.728460   49.379421
H   35.137184   68.946587   53.175388
H   68.647583   99.276184   27.270670
H   13.569355   82.721252   72.848152
H   93.658714   77.912285   65.406769
H   24.899908   34.136734   31.662779
H   25.864204   68.092728   93.458382
H   25.228714   26.381977   27.778488
H   90.708984   22.709225   40.004894
H   69.590088   31.127378   55.872955
H   64.262337   37.461155   15.532176
H   74.905884   39.041958    3.146061
H    7.032989   26.903143    5.943488
H   48.286564   95.345520    0.854247
H   89.326698   65.432556   91.456589
H   55.652470   81.237816   92.130005
H   62.943016   17.607969   72.813629
H   61.080467   85.424789   23.862448
H   10.651215    3.369159   82.678734
H   29.162411    9.611433   85.147690
H   40.350010   31.081825   32.319420
H   22.014450   60.829784   79.437531
H   72.973007   48.331417   52.438984
H   41.420845   22.310986   84.800064
H   14.707809   25.513821   50.629620
H   34.237434   18.322018   26.491344
H    2.854428   64.331833   14.230527
H   74.432808    6.897053   90.068039
H   50.763165   64.623459   23.928814
H   93.323540   49.577469   67.849304
H   73.613174   88.220940   35.703571
H   93.489136   49.479263   82.998779
H   71.768166   23.755945   67.915634
H   51.959427   82.222137    6.583241
H   78.514175   86.874588   11.284329
H   92.166725   86.632904   97.992561
H   96.850731   15.131038   50.728825
H    8.526356   99.869370   52.602882
H   60.147438    1.520328   82.458817
H   69.030128   86.776024   59.470551
H   91.926308   61.629417   81.886932
H   48.482712   45.494362   71.530457
H   43.492905    5.109148   93.151230
H   54.726749   60.627842   17.591049
H   53.417328   43.532703   48.181755
H   52.337345   58.288681   96.584694
H   53.909843   23.523142   79.499825
H   44.203327   67.014381   51.782612
H   48.981266   63.405903   25.871006
H   46.694298   96.414314   46.687599
H   40.386078   70.329117   68.348778
H   67.404144   61.326946   97.119347
H   12.107736   89.580963   86.890892
H   73.294655   62.719540   50.717606
H   37.281269    4.813139   45.551296
H   80.031548   28.735081    0.550769
H   12.103988    3.047887   73.901459
H   16.903801   56.070999   62.254940
H   65.966034   43.734707   56.614498
H   60.180065   63.372536   81.738571
H   47.226109   35.328194   11.668653
H    8.583077    1.421591   99.526932
H   62.749130   53.557251   81.426270
H   54.771244   81.037384   81.209045
H   39.707150   22.626173   34.824932
H   68.792091   30.951250   37.197540
H   14.321275   22.617950   67.647583
H   58.159470   24.904696   10.640079
H   13.343709   61.798370   61.848106
H   73.470612   96.224495   53.101585
H   23.704720   34.708889   51.444874
H   95.200760   27.900291   36.660946
H   30.260677    9.833361   89.468689
H   77.779358    6.620882   35.969109
H   43.295631   62.364330   57.712994
H   39.276623   73.887833   88.088638
H   70.203545   72.554642   76.166489
H   67.580170   94.412170   95.328766
H    3.469958   48.109184   23.366375
H   34.565086   55.513950   90.380020
H    2.465609    9.280014   65.941513
H   73.478951   19.450083   68.164085
H   82.352280   55.345436   87.555862
H   79.902473   88.163742   39.789501
H   20.901794   30.207363   72.646217
H   61.813995   90.079636    7.712772
H   53.288219   25.374046   80.243767
H   86.596306   84.734413   78.054886
H    0.998014   36.924133   84.369606
H   34.242096    3.102838    1.104183
H   86.433540   70.740303   28.430742
H    4.214758   61.543533   67.492004
H   51.122898   57.821812   66.751663
H   51.785301   28.278301   78.708748
H   46.972500   87.184799   23.567194
H    5.944109   19.498625   59.707516
H   33.653446   66.843605   34.985985
H   82.046295   50.548035   21.544783
H   75.530777   10.587111   28.429232
H   10.012990   87.822609    6.268231
H   26.497322   95.756592   44.625942
H   10.806486   11.844135   74.305016
H    7.142058   32.180840   96.595665
