200
TIME:    0.464, STEP:   464
H   16.354292   61.731586   19.169838
H   29.960806   36.148308   98.990685
H   13.442801   78.942596   56.381401
H   25.393227   79.591927   38.642151
H   12.831878   89.406494   50.437920
H   82.331482   46.735283   58.919228
H    6.604583   55.145195   53.987057
H    7.908341   98.559235   17.121281
H   96.525398   84.148071   42.254940
H    2.976009   71.761192   87.237007
H   20.001276   99.379341    0.040283
H   31.704071   48.001724   23.415377
H   16.671978   94.441963   52.111015
H   93.816170   54.152004   53.059750
H    8.807132   73.668953   42.427444
H   22.771214   16.736996   49.490852
H   94.745010   18.209526    4.556499
H   31.243027   93.935349   39.532452
H   72.478302   21.592358   45.781319
H   90.768898   76.628502   28.787373
H   60.773308   87.940140   15.578032
H   85.042213   57.376381   61.942612
H   88.297447   60.912796   43.761452
H   13.352799   90.101418   90.883690
H   12.982707   21.712957   37.417431
H   18.475668   72.277298   99.558357
H    3.233585   63.291386   58.088211
H   99.650909   79.369911    1.320678
H   20.503040   49.721138   37.026718
H   82.927109   26.765017   90.877365
H   13.069042   60.807652   16.468678
H   27.852688   68.756332   99.118019
H   21.710945   13.805515   75.915237
H   89.012978   63.822304   42.205582
H   37.238926   80.545151   32.515232
H   25.744240   44.814651   82.045082
H   92.693665   69.594284   87.636574
H   21.835098   50.549625    5.095970
H   44.779968   38.379498   49.410759
H   87.934555   38.767345   54.946381
H   80.570961   94.759872    8.959338
H   24.488726   38.409744   33.189171
H   72.668655   82.636177   58.645908
H   36.782242   74.113289   26.759626
H   36.430511   83.129379   52.447411
H   37.907570    8.008938   45.124035
H   84.195343   15.237923    1.090460
H   84.662453   65.547188   39.594925
H   95.743210   20.251675   61.327831
H   54.101406   18.812368   96.235779
H   72.879623   67.660912   18.991413
H   12.575336   39.553448   68.357643
H   58.217575   88.013084   10.857771
H   19.072792   86.910751   85.020302
H   67.717453   71.403244   83.528969
H    2.434134   66.831749   85.983185
H    4.791217   17.593117   47.251759
H   69.855942   63.786671    1.260512
H   23.454538   78.804611   12.544179
H   37.922504   94.731361   62.853363
H   49.694054   11.006105   35.691948
H   93.961906   16.955523   50.783058
H   77.618454   29.846788   77.327789
H   29.553345   65.471916    8.668755
H   74.949203   79.418427   27.089331
H   29.952856   25.263700   36.889664
H   77.807961   18.437073   90.463051
H   96.087029   91.959206   91.706367
H   24.490198    8.880286   59.144600
H   43.947536   45.534161   50.970631
H   58.366898   80.466400   79.273041
H   25.845028   17.933954   43.196835
H   84.603165   29.535656   91.995026
H   15.162940    4.041022   67.093666
H   81.872574    4.497618   57.080246
H   58.975624   11.168408   61.413727
H   94.480804   38.289185   68.977119
H   18.258549   10.048857   40.307869
H   13.233562   39.673138   29.977276
H   64.900848   89.417679   83.638580
H   52.875179   26.316221   97.808197
H   36.485958   64.562172   80.932426
H   10.125781   16.123392   83.725761
H   17.369440   69.184303    1.152267
H   30.931534    1.692548   51.434174
H   30.978065   77.936920   23.119858
H   45.894646    3.250875    2.284862
H   73.468697   10.207342   19.890980
H   72.541824   72.602463   77.977539
H   22.322182   96.087440   52.401150
H   31.852814   36.826511   79.758148
H   82.495125   90.500793    3.255479
H   57.900684   14.335793   89.350189
H   49.983311   86.386040   75.255302
H   30.800865   53.896172   77.269127
H   59.995705   32.717476   18.529638
H   82.344170    6.531472    7.976336
H    0.736796   31.919483   50.714420
H   31.942223   67.534134   53.675072
H   71.099205    1.567283   27.305094
H   19.860258   86.619751   79.487648
H   98.901894   80.045486   64.629005
H   27.822706   28.983759   33.633053
H   32.639488   68.353058   99.057632
H   25.041803   24.529007   32.349865
H   96.291023   15.805902   33.403587
H   76.269386   32.878155   55.216751
H   63.431492   42.874840   10.079899
H   78.489189   37.262138    9.964130
H   11.562411   24.937220    6.633578
H   50.141685   94.120247    0.953451
H   94.988342   68.978210   93.062675
H   53.203537   82.874023   89.063057
H   62.465385   14.568184   69.177612
H   56.375160   91.296204   18.918594
H    4.896922   99.244331   89.039612
H   23.365223   11.596854   86.791428
H   39.634640   38.021992   29.500969
H   27.369238   66.123520   72.468857
H   76.694008   51.145565   57.698837
H   42.892464   23.247959   80.179741
H    8.623936   22.173634   54.777153
H   37.636787   12.375219   30.674109
H    0.777006   59.258049    8.055887
H   70.213737    3.405931   85.404686
H   55.928890   68.481079   21.206373
H   89.818764   50.235825   62.403885
H   70.529015   89.326805   36.894421
H   95.224312   44.375393   79.785530
H   78.602371   23.087639   70.317772
H   57.651192   77.187653   11.971645
H   73.102104   88.273056   14.609456
H   91.706306   93.492928   99.041412
H   89.936920   18.746181   52.464275
H   15.491937   97.319855   46.123672
H   56.392014    1.339367   80.381554
H   69.263565   87.135323   66.489784
H   93.128990   57.226933   79.659065
H   52.168213   47.466202   71.497108
H   43.569283   98.346703   89.233368
H   61.707256   56.481384   22.145752
H   46.926285   47.816856   51.468693
H   47.804695   60.883915   91.828827
H   47.448921   18.419271   81.836342
H   50.830990   62.338120   56.393253
H   54.147530   65.835068   19.118019
H   50.029106   95.796837   45.678013
H   36.535988   65.080559   67.539818
H   71.173553   55.439934   95.717651
H   16.602348   91.120354   81.614365
H   68.324715   65.114151   49.653156
H   43.216690    0.911723   41.132675
H   86.581757   23.462856   95.601212
H   15.831308    6.284332   70.417122
H   22.494984   59.794689   64.805901
H   70.151756   44.084324   60.952438
H   61.655987   67.601212   83.408127
H   49.230759   33.065903   14.971996
H    2.129758    0.890309   94.297737
H   61.168324   47.804169   86.837265
H   56.156265   75.309044   77.460075
H   33.087017   21.895473   33.603424
H   74.861443   24.803638   37.138912
H   19.496908   26.760105   61.615021
H   56.809410   29.689070   12.025503
H   15.773009   57.311977   61.077335
H   71.042656   93.943916   54.596333
H   23.827892   41.124092   57.275410
H   97.116661   27.441755   36.328003
H   36.695244    8.769315   87.880890
H   75.085693    8.297698   35.957275
H   38.424660   57.127068   58.145981
H   42.000946   67.829239   84.121292
H   68.467636   69.179985   79.436295
H   61.026733   93.351486   88.698952
H    7.823232   48.870811   23.501650
H   33.116596   59.918587   96.278328
H    3.715254    9.414482   67.744461
H   69.873055   16.172289   66.514969
H   75.645012   56.857933   89.544914
H   77.328217   93.216515   36.511169
H   23.745794   30.379482   77.793655
H   55.322033   89.932404   10.504349
H   56.358932   25.634914   85.431007
H   88.419693   78.618805   77.473984
H    3.949790   38.113907   85.075294
H   39.151794    0.687622    4.228445
H   79.659576   76.712837   33.364449
H    0.131498   62.172306   69.103470
H   53.686935   57.054806   68.533096
H   58.521076   23.613335   77.701851
H   45.816612   91.016602   21.771238
H    9.076049   22.853065   62.937439
H   31.190081   72.470825   37.827564
H   77.207596   44.250088   21.083557
H   75.875015   10.933098   26.497463
H   10.950233   91.667320   11.027326
H   22.399542   92.954277   40.649452
H    8.926219   12.238665   67.999001
H    5.671448   27.403736   94.636734
