100
TIME:    8.133, STEP:  8133
H   67.320549   76.186333   91.700027
H   75.863083   45.580143   90.916763
H   19.569742   59.024414   27.870739
H   82.841705   97.569878   94.364815
H   22.320387   24.653065   45.185623
H    1.894895   92.397011   84.184486
H   26.720039   10.516154   26.464359
H   80.648529   92.210136   61.449715
H   53.703209    4.337872   88.143799
H   52.618782   33.162830   26.159992
H   43.743179   93.491669   56.337112
H   45.428352   31.355679   14.013348
H   25.135429   69.705383   16.872156
H   52.383461   80.007698   76.165474
H   79.389412   43.553177   59.783661
H   74.512741    0.386930   57.930939
H   70.099525   19.906033   13.767430
H   74.984802   99.087379   17.596558
H   71.936966   19.541920   91.840530
H   73.397415   33.100742   70.065071
H   81.652977   46.551945   36.500324
H   42.098972   54.880661   26.678177
H   77.154930   28.478712   99.654663
H   63.385948   34.122528    3.046011
H   38.700874   41.173065   96.603981
H    9.259624   86.342636   25.530582
H   60.762222    4.396799   61.342716
H   46.302467   36.060642   35.605865
H   88.014839   86.981583   72.720940
H   12.848862   89.547440   29.938332
H   36.140011   51.357025   65.922005
H   79.279930   27.805820   46.351509
H   43.234707   73.433495   30.481825
H   21.740620   28.381691   29.120211
H   78.547722   43.887779   19.869879
H   79.625641   22.440706   93.857338
H   59.858723    6.686449   49.313869
H   27.840939   10.112633   96.365349
H    1.773976    4.214148   56.164101
H   97.156036   50.799568   77.922668
H   79.418823   35.245117   33.954433
H   14.809123   73.496719   95.164909
H   81.279816   12.275278   88.928658
H   60.023235   49.155098   75.936432
H   51.177711   11.007214   52.073212
H   73.141899   18.038113   16.202494
H    5.276942   67.138313    3.533868
H   56.684017   79.137253   71.801506
H    2.768346   58.874077   20.044785
H   96.494385   54.522900   14.872714
H   42.943142   84.454613   39.161118
H    0.391869    9.056452   40.156189
H   77.572960   69.166626   30.520235
H   88.351044   74.509186   90.703812
H   93.232948   71.342850   69.521957
H    3.725401    3.978597   15.760284
H   11.849599   54.872215   29.503532
H   20.455839    8.825563    4.066800
H   31.706753   82.416817   87.115860
H   22.325142   52.918423   32.288719
H   72.736404    0.350295   80.283028
H   10.261879   52.241257   27.361507
H   26.209534   52.301910   75.766235
H    1.517797   86.066940    6.326438
H   55.137154   11.274673   52.959991
H    1.725953   37.957726   27.070789
H   35.043121   29.541847   59.723553
H   18.564003   82.671989   55.007034
H   62.251534   65.400826   50.146049
H   95.201744   57.142353   84.593643
H   63.773083   42.032539   64.592140
H    3.535126   81.552147   52.191036
H   76.704163   16.020918   53.221577
H   51.167362   34.682430   19.918226
H   54.245682   40.290615   17.951025
H   17.924837   28.821434   48.681099
H    5.432503   21.868423   34.981285
H   14.081901   18.926495   63.596493
H   51.518883   29.629536    8.420563
H    0.675923   65.976402   20.255867
H   70.032097   13.421975   66.081223
H   51.589531   97.214264    6.597745
H   32.304474   43.130650    4.488199
H    9.687226    8.117373   20.593708
H   56.320892   40.152348   59.349861
H   64.114120    7.791690    6.563386
H   10.339540   12.017023   11.356163
H   86.830040   54.264084   11.251427
H   24.467857   41.339394   61.673347
H   47.272694   74.663467   14.952721
H   56.858570   12.590520    5.216083
H   80.058540    7.158988   88.493629
H    6.794526   71.549767   47.941956
H   33.289062    6.592541   75.194496
H   15.976467   21.224762    2.974908
H   65.674042   74.568848   47.368980
H   17.043192   34.414742   69.452370
H   22.578745   88.880562   15.610945
H   21.275475   71.922462   63.814518
H   44.382565   69.925430   14.261979
