200
TIME:    0.698, STEP:   698
H   23.544500   60.954990   23.171093
H   32.046448   39.564438    8.490438
H    8.538419   89.184738   67.907158
H   33.280960   82.326973   32.523109
H   10.347440   95.337189   47.073563
H   74.719055   40.384155   51.993240
H    9.994826   54.979164   58.516308
H   13.152150    8.663169    8.815467
H    6.028082   80.639999   36.546513
H   94.738754   68.483421   78.007118
H   28.157320    4.377890    7.434899
H   32.671692   54.247520   34.564987
H   22.415218    2.208146   42.520500
H   82.756371   55.139263   64.335564
H   97.509659   75.470299   41.851692
H   15.950560    7.095600   44.442978
H    5.752587   29.168903   93.195168
H   25.686794    5.184692   35.366505
H   80.263901   13.120842   49.226013
H   91.513359   73.415001   19.716373
H   63.581551   99.621216    4.857658
H   79.832771   66.320625   52.925171
H   81.290230   59.211426   38.146751
H   18.309177   92.234825   90.149940
H   23.153503   31.124052   29.067684
H   18.281965   82.662262   91.829887
H    7.765189   67.986671   67.496628
H    5.021473   89.022911    1.936404
H   30.358669   42.608589   35.656517
H   72.352905   33.033649   82.782913
H   12.763536   70.583839   16.754768
H   23.597477   74.240707    4.879357
H   16.056969   18.840544   78.773468
H   81.268440   64.077599   46.295654
H   26.009287   70.876083   30.734991
H   18.100571   39.479347   84.728355
H   99.409882   64.543732   89.393288
H   10.260581   56.602612   94.575089
H   36.119583   30.000401   54.612167
H   85.690460   37.805080   45.805756
H   80.640587   83.828613   16.726395
H   36.135880   33.502907   26.250317
H   68.455399   77.260704   67.334862
H   36.260941   85.478371   35.128399
H   44.425880   90.268707   60.891777
H   34.614624    1.919112   47.668949
H   88.604980    3.773576    6.220564
H   78.965630   65.543617   31.182693
H    4.792844   11.371817   61.496540
H   45.727558   19.868361   86.336411
H   67.313126   64.699135    9.717937
H    3.630423   43.581036   73.388557
H   64.529503   81.323647   13.913944
H   15.590134   91.848831   88.485527
H   57.812729   66.199158   75.961174
H   99.434502   61.066628   93.645599
H    4.123411   18.478615   44.741657
H   72.412460   69.226410   97.036705
H   18.516905   83.324936   18.203648
H   32.510433   93.417397   58.527634
H   48.936203    6.440702   28.855019
H   98.168022   17.509851   52.577263
H   84.065094   34.694016   69.433289
H   35.223198   65.805763   13.893372
H   78.710785   82.906860   36.658192
H   20.773401   34.354668   41.095779
H   69.067238   13.501111   95.297585
H   94.776634   92.491219   96.339165
H   32.813568   12.042460   56.182823
H   42.600544   49.612629   50.958134
H   58.264244   84.513626   85.532227
H   19.268509   11.783378   41.558842
H   92.029922   33.581097   84.159439
H   22.786501   98.897560   73.906288
H   84.721878    8.285533   46.077576
H   64.890251    2.907187   59.884636
H   93.491760   47.000450   65.667213
H    9.591635   14.309870   32.306252
H   15.012587   50.098328   24.794567
H   61.374256   88.112640   72.541290
H   62.806683   22.361383   94.334045
H   46.775410   60.353497   73.698479
H    9.212834   18.690176   76.879219
H    9.738714   76.836006    8.778670
H   22.598747    4.167004   44.802757
H   37.570274   69.749634   18.248726
H   56.382263    3.738480    2.821338
H   71.522743    1.498100   28.716949
H   79.704361   73.171967   78.820190
H   21.150146    6.576367   49.826778
H   22.044048   38.846554   78.717331
H   80.865166   92.553864    8.361271
H   69.017120   11.696705   82.685745
H   39.490337   77.979164   81.680519
H   36.729866   50.730873   87.014961
H   50.305214   37.949234    7.527556
H   85.518394   98.437675   18.054054
H   94.304390   35.555214   52.929951
H   26.639946   65.190063   54.504333
H   75.167854    5.369365   27.362223
H   30.300566   93.089600   90.506386
H    7.602763   83.585693   63.338249
H   32.673309   20.431829   36.902790
H   43.883171   68.785095    8.350425
H   24.731611   21.453865   39.936405
H    5.555160    4.349325   22.447836
H   87.354179   35.783695   54.127731
H   62.052364   51.859253    1.031510
H   84.435951   34.308395   21.279224
H   19.079325   21.674623    7.778834
H   53.220398   92.086815    1.118087
H    4.383974   74.862488   95.728096
H   49.139351   85.589432   83.973228
H   61.672722    9.523434   63.143501
H   48.566353    1.040225   10.713758
H   95.347374   92.399574   99.595963
H   13.744306   14.891809   89.519333
H   38.447430   49.539715   24.823540
H   36.255692   74.908875   60.904064
H   82.869286   55.815853   66.428207
H   45.334724   24.802937   72.511971
H   98.527512   16.630344   61.660294
H   43.278267    2.505986   37.616077
H   97.329575   50.837784   97.808647
H   63.211876   97.612404   77.665504
H   64.501793   74.883087   16.688280
H   84.002327   51.328415   53.366806
H   65.410622   91.162071   38.870724
H   98.103966   35.905140   74.452904
H   89.944244   21.978535   74.304298
H   67.097099   68.832550   20.914104
H   64.120369   90.593918   20.127750
H   90.942207    4.877455    0.782316
H   78.462936   24.745609   55.343929
H   27.051624   93.088745   35.370941
H   50.159607    1.039050   76.934181
H   69.650970   87.731606   78.138725
H   95.124931   49.920681   75.961754
H   58.284576   50.738617   71.441765
H   43.696037   87.124443   82.731384
H   73.291931   49.600029   29.704620
H   36.153915   54.926727   56.923611
H   40.282425   65.190651   83.936111
H   36.726540    9.948858   85.713966
H   61.830090   54.577515   64.044952
H   62.721329   69.866226    7.910933
H   55.563469   94.772087   44.002529
H   30.146477   56.370186   66.197289
H   77.429169   45.669998   93.391434
H   24.061687   93.675087   72.857574
H   60.077156   69.088181   47.886623
H   53.066963   94.436592   33.799644
H   97.452316   14.713207   87.387146
H   22.016857   11.655529   64.634605
H   31.773968   65.974716   69.038795
H   77.098274   44.664539   68.152084
H   64.105392   74.619141   86.178879
H   52.557625   29.311462   20.454140
H   91.419899    0.008616   85.619499
H   58.544857   38.256500   95.817215
H   58.454811   65.802437   71.238380
H   22.100012   20.682823   31.576241
H   84.933983   14.601219   37.041615
H   28.086329   33.634319   51.604073
H   54.568886   37.629097   14.324718
H   19.804615   49.866474   59.798183
H   67.013283   90.159126   57.076977
H   24.032307   51.770599   66.951614
H    0.296301   26.680780   35.775459
H   47.373886    7.003451   85.245819
H   70.615356   11.080501   35.937637
H   30.340826   48.435440   58.864555
H   46.522163   57.773998   77.537186
H   65.586197   63.583206   84.865326
H   50.150818   91.591202   77.696281
H   15.047816   50.134789   23.726191
H   30.712719   67.228806    6.066474
H    5.789182    9.637642   70.736588
H   63.888783   10.732329   63.778210
H   64.513802   59.368034   92.845894
H   73.056046    1.602063   31.070610
H   28.465624   30.665127   86.336212
H   44.546986   89.684250   15.140717
H   61.455009   26.067844   94.039619
H   91.445740   68.469498   76.509933
H    8.848463   40.088425   86.246437
H   47.299805   96.679619    9.413340
H   68.417679   86.624702   41.552628
H   93.354591   63.215801   71.777817
H   57.942146   55.781902   71.489517
H   69.699142   15.871475   76.030830
H   43.898331   97.375763   18.790716
H   14.273664   28.420010   68.298454
H   27.102240   81.809616   42.543377
H   69.177414   33.798176   20.318119
H   76.446304   11.507288   23.291550
H   12.505656   98.047905   18.925398
H   15.598957   88.303627   34.050171
H    5.805776   12.893415   57.533699
H    3.230843   19.475761   91.385742
