200
TIME:    0.190, STEP:   190
H    7.934739   62.640934   14.484608
H   27.518633   32.148224   87.867378
H   19.185684   66.949661   42.885429
H   16.157078   76.389351   45.807182
H   15.741006   82.462006   54.377380
H   91.245178   54.172073   67.029533
H    2.634833   55.339607   48.683575
H    1.768154   86.727264   26.847118
H   85.397911   88.255814   48.939167
H   12.621304   75.599266   98.044655
H   10.450884   93.526070   91.381622
H   30.571045   40.688271   10.359855
H    9.946986   85.348488   63.340935
H    6.767078   52.995983   39.856441
H   22.035906   71.559685   43.101616
H   30.757793   28.026493   55.401611
H   81.855270    5.376778   17.859627
H   37.749504   80.763397   44.410526
H   63.361835   31.512085   41.747787
H   89.897179   80.391319   39.408970
H   57.485023   74.262299   28.131199
H   91.142159   46.903206   72.501495
H   96.502480   62.904999   50.335930
H    7.550741   87.605354   91.741798
H    1.073202   10.693003   47.194485
H   18.702482   60.117458    8.607931
H   97.927589   57.793491   47.071518
H   93.362823   68.066826    0.599709
H    8.962689   58.049507   38.631142
H   95.308868   19.424910    0.355470
H   13.426771   49.360325   16.133682
H   32.835285   62.334457   92.372124
H   28.331413    7.909651   72.568420
H   98.081367   63.523369   37.416351
H   50.387882   91.867050   34.599415
H   34.694519   51.061974   78.903130
H   84.829376   75.508179   85.579567
H   35.388165   43.461941   17.415539
H   54.920761   48.191044   43.320221
H   90.562256   39.894100   65.649506
H   80.489433    7.559470   99.864655
H   10.850603   44.155357   41.313721
H   77.602127   88.930534   48.471668
H   37.392654   60.805710   16.960100
H   27.068689   74.769653   42.559563
H   41.763412   15.139738   42.144093
H   79.031921   28.661789   95.082664
H   91.333092   65.551369   49.445145
H   85.146698   30.649593   61.130283
H   63.906681   17.575865    7.827796
H   79.397659   71.128975   29.850277
H   23.049471   34.837383   62.466469
H   50.828461   95.853127    7.274076
H   23.150745   81.128555   80.962730
H   79.315292   77.496918   92.390404
H    5.946619   73.581825   77.010956
H    5.573177   16.556252   50.190937
H   66.862411   57.417057    6.205878
H   29.236212   73.511581    5.917179
H   44.259716   96.269936   67.918533
H   50.581451   16.351919   43.697342
H   89.038330   16.306437   48.682995
H   70.069824   24.170683   86.571777
H   22.914585   65.081001    2.551157
H   70.544617   75.333679   15.885017
H   40.701027   14.618620   31.964554
H   88.042824   24.216656   84.802101
H   97.621422   91.336250   86.281639
H   14.744013    5.177569   62.612663
H   45.524784   40.758518   50.985264
H   58.487099   75.727341   71.943909
H   33.545635   25.136091   45.114826
H   75.906876   24.798687    1.169962
H    6.236440   10.063706   59.117130
H   78.536209    0.062197   69.963715
H   52.049950   20.841854   63.204201
H   95.638916   28.088816   72.852821
H   28.407181    5.059465   49.677284
H   11.150425   27.465738   36.045864
H   69.029495   90.945801   96.632843
H   41.245983   30.947100    1.875795
H   24.437954   69.489372   89.402946
H   11.194787   13.117843   91.742653
H   26.304564   60.224617   92.221893
H   40.688728   98.795135   59.199165
H   23.258541   87.523743   28.823662
H   33.614273    2.679920    1.656698
H   75.747292   20.405249    9.556298
H   64.158615   71.926308   76.984367
H   23.694565   83.806023   55.415585
H   43.338806   34.461163   80.976883
H   84.403709   88.096771   97.276840
H   44.884472   17.426006   97.153854
H   62.269955   96.229988   67.731758
H   23.857944   57.602547   65.857338
H   71.342690   26.591400   31.412584
H   78.627342   16.008566   96.175827
H    8.269224   27.661751   48.120167
H   38.150871   70.278900   52.704056
H   66.335060   97.114853   27.238199
H    7.635457   79.043945   66.585365
H   88.713020   75.900116   66.140404
H   22.142942   38.997192   29.804085
H   19.473310   67.847168   88.176819
H   25.405020   28.129814   23.466480
H   85.443657   29.220869   46.231659
H   63.289761   29.475939   56.491928
H   65.045692   32.354630   20.674990
H   71.525887   40.720795   96.714836
H    2.760564   28.757524    5.292552
H   46.536697   96.501274    0.760672
H   83.986282   62.087784   89.941628
H   57.962456   79.694443   95.022942
H   63.393547   20.475285   76.243347
H   65.518806   79.886505   28.525799
H   16.079021    7.260057   76.678757
H   34.630680    7.738651   83.597214
H   41.024792   24.535427   34.977959
H   16.963480   55.836399   86.010818
H   69.463127   45.676937   47.477562
H   40.032722   21.427174   89.158241
H   20.446499   28.664494   46.717407
H   31.030951   23.931332   22.545900
H    4.813977   69.118217   20.054745
H   78.412498   10.190061   94.466805
H   45.890530   60.984287   26.496790
H   96.629463   48.956467   72.985764
H   76.522346   87.177818   34.580288
H   91.852409   54.293552   86.029716
H   65.321716   24.386333   65.649788
H   46.590599   86.970978    1.500575
H   83.619179   85.555466    8.147862
H   92.601021   80.162102   97.003220
H    3.372336   11.720980   49.091591
H    1.956043    2.274188   58.714478
H   63.689789    1.691021   84.418221
H   68.809937   86.437111   52.849571
H   90.791862   65.781898   83.988396
H   45.006317   43.634399   71.561913
H   43.420860   11.487992   96.846802
H   48.142300   64.539108   13.294848
H   59.540085   39.491623   45.081310
H   56.612823   55.840694    1.070698
H   60.004189   28.337673   77.295876
H   37.951702   71.425323   47.433567
H   44.108124   61.114182   32.240845
H   43.548698   96.996758   47.639904
H   44.017723   75.279884   69.111839
H   63.848606   66.879684   98.441513
H    7.866576   88.127136   91.869133
H   77.982613   60.460796   51.721661
H   31.682623    8.493181   49.719215
H   73.852982   33.708172    5.219910
H    8.588146   99.995056   77.188103
H   11.629848   52.558582   59.848557
H   62.017799   43.404926   52.522682
H   58.787884   59.384220   80.163742
H   45.335197   37.462128    8.552734
H   14.670193    1.922730    4.459121
H   64.240166   58.983917   76.322281
H   53.464806   86.440712   84.745308
H   45.951672   23.315414   35.977135
H   63.067104   36.749855   37.252842
H    9.439381   18.710812   73.338074
H   59.432930   20.391775    9.333260
H   11.052241   66.029976   62.575146
H   75.760811   98.375679   51.691647
H   23.588535   28.657669   45.945148
H   93.393562   28.332811   36.974998
H   24.191193   10.837035   90.966400
H   80.320190    5.039203   35.980270
H   47.890236   67.304108   57.304573
H   36.706871   79.602676   91.830887
H   71.839256   75.742859   73.085831
H   73.761780   95.412674    1.582302
H   99.363617   47.390770   23.238775
H   35.931393   51.359222   84.816368
H    1.286865    9.153175   64.240860
H   76.880257   22.541903   69.719635
H   88.678993   53.918755   85.679665
H   82.330673   83.397652   42.881828
H   18.219156   30.045010   67.790833
H   67.936935   90.217636    5.080426
H   50.392204   25.127737   75.350838
H   84.876373   90.503036   78.602829
H   98.213676   35.801865   83.703957
H   29.611094    5.381038   98.157364
H   92.823166   65.106636   23.777031
H    8.066341   60.950436   65.971970
H   48.704338   58.545300   65.071304
H   45.431698   32.678589   79.658516
H   48.062805   83.570404   25.261251
H    2.989857   16.334507   56.660851
H   35.977131   61.535423   32.305630
H   86.610458   56.488651   21.979839
H   75.206070   10.260756   30.251396
H    9.128924   84.196037    1.779141
H   30.362604   98.399910   48.376816
H   12.580071   11.471991   80.253242
H    8.529253   36.686657   98.443451
