100
TIME:    1.644, STEP:  1644
H    6.145654   71.258163   97.640884
H   55.539406   93.879784   81.703300
H    8.013739   92.180428    4.036792
H   81.752548   64.917320   50.050785
H   80.445892    4.531362   21.128719
H    2.522955   99.427025   41.556644
H   66.806770   72.349251   19.015800
H   90.671135   30.828854   57.248238
H   13.215340   28.229599   96.602531
H   29.912867   39.988762   72.068687
H   47.334152   32.392231   81.390747
H   93.092316    6.095945   75.907478
H   38.687515   62.243095   61.727859
H   73.680443    0.008585   82.349297
H    0.496378   23.178375   71.748093
H   35.423218   67.940849   96.574966
H   91.892334   90.717331   23.037512
H   36.275955   14.753124   42.552048
H   70.867363   47.322327   49.973713
H   48.224854   70.900253   28.263773
H   66.719345   92.551575   12.623695
H   19.985416   46.269829   79.271767
H   63.794258   81.251671   85.312851
H   66.296104   56.398930   84.976562
H   70.785149   55.789436   48.691910
H   39.120808   78.621933   35.080498
H   20.314461   74.139359   32.589649
H   93.826309   33.176067   21.113844
H   46.918167   98.248840   79.459862
H   64.031532   50.151047   14.081969
H   80.772041   69.470642   79.320435
H   69.560364    7.092121   47.070747
H   86.158890   48.199120   45.901459
H   47.564476   23.059822    2.492730
H   39.907631   34.646461   24.836807
H   15.494100   13.628252   14.988038
H   37.480110   44.329933   38.005985
H   96.042656   28.864254   38.453640
H   76.813217   45.413445   84.557404
H    8.347368   58.278225   67.381729
H   22.892242   12.592971   81.076462
H   83.867828   85.641396   80.038040
H   25.401571   73.358521   20.221493
H   74.378914   40.323906   41.475559
H   14.051083   67.024796   96.791214
H   56.877651   94.273567   89.846535
H   53.439198   14.424504   41.671089
H   56.327213   12.309908   70.299339
H   13.087369   96.293968   78.895187
H   60.369732   55.772129   68.680138
H   43.419193   10.925795   70.750931
H   85.028648   11.187796   66.137680
H   42.982483   31.541199    7.388199
H   38.620907   80.383522    4.362406
H    9.880533    2.626339   14.356638
H   95.623245   10.804182   36.661163
H    0.475209   42.110207   12.345606
H    3.641611   21.632118   71.209793
H   19.935974    8.231126   85.272827
H   50.530796   54.152096   16.850304
H   63.405529    2.119433   86.216606
H   40.562378   12.642546   20.968178
H   85.744431   95.044411   20.773537
H   55.930801   50.737442   82.506416
H   97.574516   29.540215   48.664089
H    0.351899   60.544930   43.391460
H   55.667526    5.201208   46.435131
H   66.803429   11.559003   44.795307
H   38.839401   31.658966   57.124901
H   63.687920   30.831068   98.271332
H   69.827827   83.542763   42.430241
H   38.411808   96.963745   76.988304
H   99.799225   36.986965   19.593647
H   94.008598   45.344429    5.500786
H   41.435356   30.982916   26.024582
H   64.527367   12.937185   85.309105
H   16.219152   84.056381   20.122839
H    9.218440   43.223839    5.230895
H   40.354553   48.686375   36.021019
H   18.900803   19.417799   79.289162
H   43.053829   46.289593   78.246849
H   64.675278   54.964127   49.307449
H   21.818539   34.696167   86.482819
H   63.263844   52.840801   13.268715
H   72.280182   46.051704   88.385162
H   13.452679   69.443520   55.947639
H   76.953758   83.820724    1.935297
H   82.420319   73.672028   78.654610
H   89.799507    2.637361   14.749323
H   20.986477   41.637436   82.986275
H   91.301765   62.201260   68.180008
H   99.926308   19.150335   64.844719
H   90.766655   76.890488   46.099625
H    6.126019   12.952962   37.665192
H   28.168987    2.469305   53.863640
H   29.709274   30.810656   82.534088
H   32.108963   62.026257   42.641357
H   12.901351   30.235352   29.732430
H   30.395630   43.936932    7.341526
H   41.339340   36.475338   39.345406
