200
TIME:    0.176, STEP:   176
H    7.504549   62.687397   14.245216
H   27.393850   31.943832   87.299034
H   19.479122   66.336884   42.195854
H   15.685166   76.225716   46.173279
H   15.889647   82.107178   54.578667
H   91.700623   54.552055   67.443962
H    2.432001   55.349541   48.412594
H    1.454420   86.122711   27.344059
H   84.829353   88.465698   49.280697
H   13.114132   75.795372   98.596870
H    9.962902   93.226997   90.939209
H   30.513153   40.314590    9.692777
H    9.603374   84.883858   63.914726
H    7.428829   52.936916   39.181820
H   22.711836   71.451912   43.136063
H   31.165867   28.603329   55.703621
H   81.196671    4.721095   18.539349
H   38.081955   80.090378   44.659771
H   62.896030   32.018932   41.541695
H   89.852638   80.583580   39.951679
H   57.317009   73.563431   28.772602
H   91.453835   46.368080   73.041000
H   96.921715   63.006790   50.671852
H    7.256624   87.481148   91.785240
H    0.464689   10.129932   47.694042
H   18.714071   59.496189    9.070318
H   97.656502   57.512577   46.508621
H   93.041534   67.489296    0.562872
H    8.373036   58.475044   38.713120
H   95.941513   19.049868    0.839735
H   13.445049   48.775425   16.116566
H   33.089870   62.006332   92.027443
H   28.669685    7.608402   72.397415
H   98.544716   63.508095   37.171646
H   51.059727   92.445541   34.705906
H   35.151833   51.381180   78.742592
H   84.427551   75.810349   85.474464
H   36.080677   43.099796   18.045006
H   55.438904   48.692364   43.009026
H   90.696518   39.951672   66.196381
H   80.485268    8.213455   99.399918
H   10.153765   44.448929   41.728844
H   77.854202   89.252144   47.951817
H   37.423843   60.125801   16.459394
H   26.590361   74.342514   42.054344
H   41.960426   15.504086   41.991833
H   78.768097   29.347679   94.775688
H   91.673927   65.551582   49.948441
H   84.605270   31.180874   61.120190
H   64.407639   17.512686    8.420103
H   79.730698   71.306175   30.405109
H   23.584650   34.596416   62.165421
H   50.450935   96.253777    7.090914
H   23.359108   80.833115   80.755409
H   79.907883   77.808273   92.843178
H    6.126089   73.926720   76.552521
H    5.613132   16.503273   50.341114
H   66.709457   57.091602    6.458561
H   29.531626   73.241135    5.578573
H   44.583515   96.348549   68.177338
H   50.626793   16.625063   44.106377
H   88.786789   16.273272   48.575703
H   69.684128   23.880663   87.044098
H   22.575378   65.061028    2.238580
H   70.319565   75.124969   15.312521
H   41.250198   14.074722   31.712906
H   88.565773   24.511963   84.512856
H   97.699821   91.304420   86.004463
H   14.246044    4.988379   62.789864
H   45.605373   40.514507   50.986012
H   58.493240   75.485199   71.569427
H   33.939075   25.504084   45.212826
H   75.462540   24.556652    1.638731
H    5.780341   10.371430   58.709591
H   78.365738   99.835548   70.621994
H   51.696083   21.336124   63.295685
H   95.698090   27.567629   73.050850
H   28.925724    4.804533   50.156013
H   11.043987   26.841986   36.355938
H   69.240448   91.023880   97.296783
H   40.651791   31.183714    2.083604
H   23.822372   69.741127   89.835747
H   11.249408   12.964274   92.152275
H   26.761103   59.766823   91.765594
H   41.187271   98.647095   59.595917
H   22.864113   88.013580   29.115097
H   32.986809    2.650747    1.624603
H   75.863716   20.926302    9.028249
H   63.730377   71.891487   76.933418
H   23.764687   83.178505   55.569607
H   43.925682   34.340305   81.039154
H   84.501228   87.973938   96.971359
H   44.219410   17.583900   97.552582
H   62.897739   96.732964   67.347343
H   23.503197   57.791924   65.274254
H   71.922462   26.278389   32.070835
H   78.437431   16.492796   95.572876
H    8.654093   27.444202   47.987614
H   38.468102   70.419144   52.654442
H   66.091637   96.887344   27.234781
H    7.010829   78.656860   65.926125
H   88.192421   75.688309   66.217628
H   21.852736   39.508820   29.608433
H   18.800585   67.821320   87.620865
H   25.423578   28.313797   23.012585
H   84.889412   29.906305   46.887108
H   62.626568   29.302103   56.557083
H   65.128151   31.817101   21.216337
H   71.170097   40.897514   96.037865
H    2.310837   28.952723    5.224032
H   46.352501   96.622932    0.750822
H   83.424133   61.735680   89.782158
H   58.205612   79.531982   95.327461
H   63.440971   20.777107   76.604370
H   65.986000   79.303528   29.016678
H   16.650356    7.669626   76.047180
H   35.206287    7.541511   83.434006
H   41.095821   23.846333   35.257805
H   16.431799   55.310780   86.702744
H   69.093666   45.397518   46.955307
H   39.886604   21.334141   89.616997
H   21.050571   28.996143   46.305595
H   30.693426   24.521786   22.130590
H    5.020244   69.622047   20.667816
H   78.831413   10.536691   94.929832
H   45.377621   60.601208   26.767103
H   96.977455   48.891098   73.526443
H   76.828575   87.068016   34.462048
H   91.680122   54.800320   86.348763
H   64.643143   24.452690   65.411278
H   46.025459   87.470856    0.965558
H   84.156548   85.416611    7.817712
H   92.646736   79.480965   96.899078
H    4.058827   11.362026   48.919250
H    1.264432    2.527328   59.357803
H   64.062668    1.708988   84.624474
H   68.786758   86.401436   52.152626
H   90.672447   66.218971   84.209602
H   44.640381   43.438614   71.565224
H   43.413277   12.159450   97.235809
H   47.449200   64.950867   12.842622
H   60.184586   39.066246   44.754948
H   57.062874   55.583012    1.542900
H   60.645699   28.844467   77.063881
H   37.293636   71.889633   46.975773
H   43.595161   60.872948   32.911354
H   43.217583   97.058067   47.740147
H   44.400002   75.801018   69.192162
H   63.474339   67.464157   98.580688
H    7.417882   87.970947   92.393501
H   78.476082   60.223034   51.827351
H   31.093317    8.880560   50.157944
H   73.202606   34.231655    5.711396
H    8.218058   99.673660   77.534065
H   11.074696   52.188854   59.595253
H   61.602196   43.370213   52.091965
H   58.641338   58.964397   79.997971
H   45.136154   37.686752    8.224743
H   15.310942    1.975482    4.978298
H   64.397072   59.555145   75.785019
H   53.327286   87.009483   85.117546
H   46.608990   23.387966   36.098419
H   62.464474   37.360229   37.258663
H    8.925497   18.299534   73.937073
H   59.566978   19.916731    9.195700
H   10.811034   66.475380   62.651676
H   76.001884   98.602119   51.543232
H   23.576305   28.020699   45.366230
H   93.203331   28.378340   37.008057
H   23.552299   10.942685   91.124054
H   80.587646    4.872711   35.981445
H   48.373878   67.824066   57.261581
H   36.436371   80.204239   92.224808
H   72.011436   76.078461   72.761551
H   74.412476   95.517990    2.240533
H   98.931351   47.315147   23.225344
H   36.075214   50.921883   84.230721
H    1.162787    9.139824   64.061844
H   77.238289   22.867357   69.883377
H   89.344963   53.768578   85.482170
H   82.586273   82.895958   43.207336
H   17.936773   30.027920   67.279739
H   68.581436   90.232162    4.803337
H   50.087364   25.101809   74.835793
H   84.695328   91.110260   78.660507
H   97.920586   35.683731   83.633888
H   29.123632    5.620850   97.847183
H   93.495758   64.513618   23.287167
H    8.471771   60.888004   65.811966
H   48.449753   58.621456   64.894424
H   44.762897   33.141777   79.758492
H   48.177574   83.189941   25.439573
H    2.678885   16.001442   56.340149
H   36.221729   60.976639   32.023487
H   87.090897   57.113979   22.025635
H   75.171890   10.226402   30.443203
H    9.035865   83.814293    1.306604
H   30.769476   98.678154   48.771645
H   12.766765   11.432817   80.879372
H    8.675278   37.160954   98.637955
