100
TIME:    0.590, STEP:   590
H   77.423256   67.915321   98.605850
H   84.858284   36.733891   15.217185
H   89.901459   16.351032   16.412300
H   81.575638    8.341551    7.822730
H   89.886475   20.048622   49.707573
H   18.867355    0.571507   37.175175
H   22.049015    1.176251   36.591541
H   73.513458   39.644161   54.022949
H   39.124672   29.567398   62.950104
H   58.716805   24.856781   30.793848
H   45.374664   89.982590   82.917412
H   33.321926   53.264290   50.931938
H    5.733081   26.011734   66.486870
H   25.868397    3.258162    2.138367
H   87.678291   17.322744   22.411188
H   77.801300   60.132481   84.064926
H   76.631432   21.014633   27.072878
H   13.752246   66.008942   79.092087
H   54.451538    3.102882   94.447052
H   76.678627   93.161804   56.439018
H   29.265106   97.480377   41.229614
H   18.921009   44.878670   69.019051
H   77.866676   89.823784   15.469069
H   64.224136   43.757877   63.257538
H    8.482439   39.383076   40.915482
H   43.953678   10.029836   33.872841
H   11.202021   17.951046   11.674017
H   82.758293   83.978394   86.276321
H   24.000229    2.621692   29.282051
H   23.616385   76.237289   30.291458
H   39.310673   74.950966   62.724174
H    3.010311   36.210548   44.644814
H   11.916187   25.314749   50.948814
H    3.030720   19.652588   46.895073
H   66.106453   14.320834   60.654015
H   23.853493   30.833391   18.614225
H   36.387836   82.928566   54.954967
H   39.604279   48.155529   64.074684
H   24.195644   67.913231   85.578079
H    7.622391   56.950115   84.454338
H   94.922348   76.424446   56.242161
H   78.595329   38.337624   30.519217
H   16.322851   67.037994   44.089180
H   41.683487   22.659117   38.419197
H    5.477722    8.613612    6.595087
H   70.416191   74.295464   85.631981
H   42.309925   57.569355   32.664742
H   56.270924    1.457957    5.083784
H   82.275993   83.585373   20.938253
H   38.263973   39.729572   42.398979
H   43.499607   12.682760   59.637745
H   33.805046    8.991020   35.329750
H   21.117968   25.429749   68.605019
H   63.026501   97.575996   57.851398
H   93.789352   10.226995    5.412611
H   94.304459   11.911882   72.541809
H   33.655022   72.522713   12.101431
H   82.126160   21.168816   98.357498
H   36.808701   63.697540   66.189987
H   20.085236   73.137848   46.828575
H   96.917923   51.132225   68.393646
H   77.970886   22.453720   68.660828
H   14.251904   66.919960   93.081642
H   83.553841   45.003937   11.120779
H   55.741661   13.721464   50.507202
H   65.100716   12.942432   81.071266
H   40.232201   68.758392   95.546860
H   39.610542   51.280136   94.408012
H   86.307640    7.392677   23.228268
H   42.338051   77.819481    0.490083
H    3.296374   55.260212   55.071293
H   25.319151   31.944679   99.818123
H   68.522659   89.123116   46.620731
H   17.204590   12.042873   68.143150
H   90.618332   29.483198   46.124195
H   39.607296   45.386482   56.229168
H   20.522793   75.407829    1.474052
H   59.699600   12.141705   47.024433
H   89.832329   51.774265   24.267166
H   70.590805   76.822548   70.092163
H   22.427685   35.385479   15.251711
H   85.591438   48.080704   37.443314
H   55.126369   17.105028   86.094513
H   90.756073   62.648655    9.540138
H   23.601622   11.978272   90.558662
H   37.713528   30.725533   82.754570
H    6.559500   60.455116   51.676601
H   65.453003   58.057137   89.606972
H   67.926949   61.321800   23.373413
H   14.172241   85.008499   45.304363
H   48.167789    5.290562   45.921459
H   21.940981   39.879356   44.765053
H   23.139160   45.308701   64.558830
H    4.252876   49.021179   66.598015
H   46.391605   96.880310   29.643391
H   42.653183   72.432732   36.974800
H   15.771122    1.539443    3.257378
H    9.031436   21.261169   46.595749
H   80.605888   39.393551   95.630745
H   75.882462   63.550671   40.860825
