100
TIME:    0.467, STEP:   467
H   85.741371   79.195076   98.718460
H   88.279747   30.064709    7.458600
H   87.788147    7.502017   17.856522
H   81.554993   13.409464   14.565007
H   90.988174   10.189630   53.042702
H   20.774685    0.705378   24.993872
H   28.495461   92.871162   26.972780
H   83.181015   29.003468   65.316673
H   42.148247   41.393311   70.692162
H   62.078209   23.091152   25.976961
H   56.815826   85.033386   94.765846
H   38.016819   47.098900   59.687355
H   13.556920   33.453369   78.712547
H   31.958714    3.637399   92.778404
H   86.182457   28.309244   28.323675
H   82.746750   70.890816   94.274887
H   86.520454   12.880447   15.874293
H   11.123979   71.990402   83.356247
H   52.536232   97.942978   87.966354
H   80.008125   95.740570   48.047707
H   36.564102    9.725510   44.567558
H    7.126826   44.716324   79.491768
H   79.508904   90.824135   18.988560
H   75.652161   42.282688   72.392151
H   12.881262   49.137905   40.007095
H   44.517666   13.694583   45.401276
H   21.808462   23.064003    9.233198
H   93.137169   78.237167   82.211105
H   21.325745   91.462120   35.096252
H   18.900377   79.281509   20.513638
H   34.472202   63.920830   72.457420
H   95.244141   39.608551   56.031548
H    3.252032   34.313805   39.868004
H   97.833641   30.924835   52.077003
H   69.163811   23.618698   53.164520
H   13.158841   21.170996   19.037451
H   24.590721   87.432961   45.263012
H   44.687675   50.406788   55.395267
H   29.725258   70.538918   97.366455
H   19.207600   68.465050   74.777397
H    3.328304   72.203453   53.343395
H   89.649864   32.816925   24.740454
H   15.263543   66.300400   35.205200
H   49.538025   20.597887   26.392681
H   16.147038   13.466393   96.069519
H   71.987099   71.983208   85.149635
H   41.011158   50.933819   31.613714
H   56.264355    0.191527   97.473282
H   78.679985   93.772812   25.844759
H   35.684269   37.857433   51.001434
H   43.508991   24.557940   58.340855
H   27.827665   20.404499   43.404816
H   18.566416   24.716553   75.748238
H   65.873978   99.582329   52.423603
H    3.581060   99.444077    4.368858
H   94.150558   12.041149   76.729019
H   25.857727   76.071800    0.402922
H   91.285095   32.784523    1.525711
H   27.108299   58.500595   75.632324
H   28.201591   63.684219   50.326988
H   89.159103   56.851868   77.984253
H   82.336395   23.598587   74.225632
H    5.908686   75.307518    1.519902
H   75.108101   44.334846   14.460600
H   50.859085   23.545322   39.051964
H   72.656837   19.057148   73.798546
H   50.100578   64.505493   89.608566
H   48.106956   44.245773   88.527901
H   80.177910   16.230675   30.942982
H   39.846558   71.633446    0.748734
H    7.202411   63.629940   56.546482
H   35.460918   36.026787   90.813087
H   76.542358   95.207802   49.774746
H   19.911919   19.826681   75.453407
H   84.687546   29.308184   36.800098
H   36.699146   37.502853   64.505112
H    9.355178   86.068230   99.297424
H   53.920837   20.184395   40.231243
H   83.937202   52.134617   22.895672
H   76.622940   83.520958   80.688751
H   20.020649   34.112988    7.900399
H   76.363060   47.277420   47.729286
H   47.344090   15.052136   74.379333
H   82.295319   52.123386   20.774849
H   29.591059   19.672218    2.482127
H   40.544727   26.207531   74.213112
H   98.344582   69.398216   45.811504
H   63.472946   67.904869   90.885094
H   65.374458   68.170357   24.379864
H   25.047070   90.070312   40.906948
H   43.134129   98.648911   43.323925
H   12.840145   30.628527   42.421829
H   15.247555   41.623543   55.043297
H   92.364754   41.559837   58.304943
H   48.518055    7.897909   26.817352
H   32.493896   77.289970   43.327873
H   25.533934   94.480721   10.331316
H    8.579823   20.213898   48.563606
H   86.465355   38.863346    5.934070
H   68.243759   66.709511   52.707382
