100
TIME:    2.947, STEP:  2947
H   18.028774   51.766380   96.447952
H   19.294151   64.528137   63.895863
H   30.411039   85.923340   88.745445
H   81.971252   11.233450   78.628723
H   68.775040    8.972547   85.799896
H   82.321907   98.015388   70.597862
H   98.518837   60.334465   20.912178
H   88.257904   43.554462   37.610409
H   81.185051    2.951284   14.583467
H   94.308022   58.697914   23.090754
H   26.132263   84.821594   55.878864
H   43.362801   71.408600   83.158638
H   55.802689   83.409683   32.221397
H    9.162961   95.992378   81.508232
H   16.347012    6.789590    9.111987
H   83.031570   53.973724   88.414406
H   87.126869   76.891220   41.665386
H   64.120934   51.388084   97.376160
H   91.167091    1.981859   18.622339
H   13.122826   43.231693   16.978052
H   89.397568   62.835144   77.255051
H   44.912109   47.996170   68.314011
H   46.397331   70.654457   48.033722
H   45.233292   72.026337   88.203636
H   24.182102   52.448227   58.304955
H   33.146206   39.798191   12.949390
H    7.955326   19.973261   58.446453
H   83.882439   93.995720   64.186485
H   75.250305   16.467009   17.865942
H   13.994765   17.902115   17.666611
H   32.037495   86.318680   76.221687
H   51.832527   71.087166   26.445488
H   77.940765   52.865532   63.285988
H    2.618420    3.647843   47.598114
H    7.516399   36.149628    4.181259
H   28.784859   15.986681   10.509572
H   62.453743   96.609360   40.677303
H   42.185799    5.015708   30.403103
H   20.678169   17.206877   58.725952
H   85.618805   36.294884   69.899025
H   33.844692   57.300259   11.776082
H   66.761589   44.121941   41.253265
H   36.625072   81.172226   14.338807
H   91.173691   62.164505   68.875206
H    1.025582   15.618759    8.293433
H   40.067249   19.126301   95.135201
H   64.758102   85.105194   53.749374
H   56.396801   25.725424   50.921577
H   51.171730   88.379204   26.916502
H   87.689201   75.598808   77.547028
H   43.319782   85.129440   84.489532
H   48.350956   90.279556   80.597099
H   70.010124   39.096436   31.711803
H    8.449665   59.127167   61.859344
H    6.148100   16.851456   25.413733
H   97.253586    9.434795   92.303970
H   83.078575    4.512202   36.271751
H    6.616788   98.579483   37.648636
H   22.700645   63.286739   85.240700
H   64.545746   54.305111   79.790901
H   45.600014   41.522434   84.624435
H   94.319817    0.511923   62.014084
H   74.133034    6.184803   31.385849
H   45.404968   57.825447   47.131237
H   49.294666   25.471699   70.010353
H   20.306160   95.768837   20.434189
H   51.125404   50.246777    9.343040
H   76.796257   86.078857    7.086242
H    3.778999   38.033699   75.402565
H   90.091370   96.367744   95.527588
H   28.452538   94.885460   26.797955
H   30.973837   53.719955   72.388184
H   14.841570   72.534569   86.185783
H   65.338463   62.888901   28.059578
H    4.259124   32.839176   24.800819
H   95.324898   96.447380   97.634399
H   34.523228   71.121231   43.168873
H   70.435745   58.024639   77.192383
H    2.833390   44.862461   50.561470
H   54.998940   48.454655   67.034531
H   68.550980   59.769726   56.123875
H   62.442009   63.473709   40.351540
H    4.255640   56.447296   10.587027
H   52.898418   64.340179   94.254364
H    8.834540   64.549393   62.073830
H   83.466187   17.301819   46.431896
H   63.978188   89.082008   64.067642
H    3.395239   69.350479   65.095253
H   16.841316   30.087450    4.089521
H    5.783653   88.027298   29.566429
H   44.626007   32.561672   95.696976
H   96.339233   17.137392   89.677589
H   74.363052   15.940950   46.900475
H   32.066547   91.989937   25.520111
H    5.637612   85.755219   83.806236
H   37.331726   79.357735   15.232805
H   28.683067   36.802715   67.704903
H   17.684629   41.329620    8.881819
H   68.325188   49.553654   98.194572
H   22.260859    3.010235   13.845391
