100
TIME:    2.913, STEP:  2913
H   20.327961   54.884361   96.479080
H   20.239922   62.684662   61.751148
H   29.826612   83.477203   89.144402
H   81.965546   12.634336   80.492249
H   69.079575    6.247297   86.721802
H   82.849007   98.052223   67.230858
H    0.300884   58.038521   18.253334
H   90.930237   40.613132   40.732281
H   82.020836    6.220295   16.723686
H   95.237190   58.209724   21.759256
H   29.294861   83.453522   59.153782
H   44.660576   69.704346   85.578835
H   57.965302   85.466721   35.600594
H   10.846398   96.097176   78.920982
H   15.933399    9.826560   10.746398
H   84.398605   56.947479   91.236671
H   89.860939   74.642227   38.570232
H   63.394402   53.041496   98.554871
H   90.637398    0.555447   16.831186
H   14.038765   43.953602   14.663172
H   91.415176   66.219879   78.177994
H   41.652496   47.951035   71.209427
H   46.851280   70.930977   49.006470
H   48.392258   71.618561   90.728630
H   25.398037   55.144684   58.054115
H   33.302105   40.811146   16.136179
H   10.887188   21.386599   57.771755
H   86.751396   92.408714   63.062550
H   74.511017   13.382306   19.473051
H   12.691089   18.743607   14.963799
H   30.699381   83.269699   78.911659
H   49.685738   72.026711   29.593040
H   75.545990   55.353172   60.223000
H    1.181797    6.763714   49.030518
H    8.361606   38.719757    2.110992
H   25.828613   13.315775   10.626431
H   59.192833   97.854477   37.998226
H   43.590965    5.637975   28.003918
H   22.113426   17.947592   62.020844
H   88.821350   39.477974   67.224098
H   36.168392   56.133739   10.975121
H   69.817314   42.595894   39.655884
H   36.332211   80.968338   11.883004
H   93.344864   61.594604   65.550743
H    3.974821   16.960133    5.383880
H   40.505894   18.477802   94.997200
H   64.492477   83.256195   53.422791
H   56.394985   25.375364   48.817848
H   50.177971   91.195244   28.272772
H   86.976372   75.081566   79.925201
H   43.322376   88.411880   84.131042
H   46.698582   93.434372   82.828972
H   69.305077   38.899292   33.686592
H    9.236942   59.682022   60.358978
H    8.855150   13.871734   25.124632
H   97.211044    9.470528   93.461411
H   80.922966    5.493316   33.038078
H    9.148461    1.790385   38.524368
H   20.019234   61.850185   87.850777
H   66.789551   51.691662   80.757942
H   43.455299   43.103474   87.275497
H   95.526543    0.828451   63.552582
H   71.824898    8.504936   33.717331
H   43.070114   57.640495   48.054440
H   47.945011   28.187222   66.844124
H   22.394844   97.459084   18.423973
H   53.853249   49.071438    7.701437
H   79.144859   84.134399    5.460845
H    2.084391   40.476723   77.534828
H   89.402405   94.657784   95.599182
H   29.532288   97.198784   27.205860
H   33.777214   54.848343   69.898987
H   17.058527   74.216515   87.057365
H   66.086571   65.040497   30.080299
H    2.619882   32.790668   22.223297
H   94.521278   94.268425   99.922302
H   31.436140   74.068008   42.567585
H   68.838364   60.247952   75.314850
H    1.203016   44.962330   50.181969
H   56.666359   50.306507   69.963669
H   67.885880   59.417980   54.091740
H   59.890816   63.251663   43.194557
H    2.104491   55.879730    7.348749
H   50.559414   61.430756   97.359894
H   10.490092   66.675949   65.369759
H   84.248535   16.052940   44.070843
H   61.707405   91.554085   62.446396
H    2.848036   72.072617   65.449074
H   16.135620   31.980417    4.367695
H    8.789768   89.425980   28.351013
H   43.234589   30.725811   94.978958
H   93.823578   14.580528   89.029610
H   72.183578   14.920668   44.271202
H   28.780216   89.927711   23.227669
H    6.225509   88.800568   83.024925
H   34.523468   80.700386   16.988968
H   31.381729   34.851513   69.660255
H   17.559858   41.040131    9.425844
H   69.944878   49.407093    1.042691
H   20.149088    3.882627   17.120741
