100
TIME:    2.792, STEP:  2792
H   28.510361   65.980705   96.589859
H   23.605751   56.123787   54.118488
H   27.746740   74.771835   90.564217
H   81.945236   17.619844   87.124207
H   70.163361   96.548630   90.002701
H   84.724861   98.183311   55.247608
H    6.642387   49.867661    8.790977
H    0.440600   30.145456   51.842472
H   84.995247   17.854111   24.340191
H   98.543938   56.472343   17.020693
H   40.549988   78.584793   70.809174
H   49.279129   63.639206   94.191887
H   65.661858   92.787354   47.626556
H   16.837486   96.470131   69.713417
H   14.461426   20.634550   16.562956
H   89.263641   67.530548    1.280662
H   99.591011   66.638458   27.555124
H   60.808640   58.925697    2.750000
H   88.752312   95.479843   10.456789
H   17.298431   46.522747    6.424943
H   98.595490   78.265228   81.462585
H   30.052109   47.790405   81.513702
H   48.466805   71.915062   52.468307
H   59.634460   70.167358   99.714638
H   29.725334   64.740967   57.161423
H   33.856922   44.416073   27.477621
H   21.321167   26.416418   55.370625
H   96.961510   86.760841   59.062511
H   71.880020    2.404366   25.192469
H    8.051534   21.738327    5.344935
H   25.937277   72.418915   88.484795
H   42.045692   75.370384   40.794624
H   67.023407   64.206245   49.322365
H   96.069298   17.852493   54.128189
H   11.369481   47.866394   94.742607
H   15.307858    3.810441   11.042314
H   47.587830    2.285844   28.463865
H   48.591705    7.852513   19.465641
H   27.221252   20.583666   73.746780
H    0.218629   50.806030   57.703892
H   44.437939   51.982304    8.124555
H   80.692101   37.164963   33.971085
H   35.289967   80.242737    3.143184
H    1.071637   59.566429   53.720367
H   14.470652   21.733776   95.029518
H   42.066952   16.169910   94.506081
H   63.546726   76.675934   52.260536
H   56.388523   24.129564   41.331047
H   46.641357    1.216929   33.099602
H   84.439537   73.240791   88.388702
H   43.331608    0.093508   82.855240
H   40.818073    4.662045   90.771812
H   66.795937   38.197693   40.714584
H   12.038723   61.656654   55.019440
H   18.488770    3.266316   24.096510
H   97.059647    9.597692   97.580536
H   73.251534    8.984925   21.530006
H   18.158295   13.217513   41.640945
H   10.476562   56.737743   97.139580
H   74.774857   42.390858   84.199471
H   35.822639   48.730114   96.710159
H   99.821068    1.954931   69.026978
H   63.613674   16.759684   42.016281
H   34.760780   56.982285   51.339954
H   43.141827   37.851566   55.575386
H   29.828102    3.474333   11.269817
H   63.561165   44.888615    1.859333
H   87.503120   77.214417   99.676346
H   96.054070   49.171013   85.123177
H   86.950500   88.572334   95.853973
H   33.374763    5.431676   28.657524
H   43.753769   58.864075   61.040070
H   24.948286   80.202263   90.159172
H   68.748955   72.697159   37.271690
H   96.785789   32.618038   13.050350
H   91.661339   86.513908    8.063950
H   20.450113   84.555069   40.427708
H   63.153561   68.159843   68.633041
H   95.400208   45.317745   48.831390
H   62.600410   56.896923   80.387955
H   65.518906   58.166180   46.859730
H   50.811569   62.461441   53.312355
H   94.449478   53.859863   95.824188
H   42.235310   51.076630    8.411407
H   16.381924   74.243988   77.099388
H   87.032776   11.608402   35.668270
H   53.626091    0.351767   56.676666
H    0.900637   81.760223   66.708260
H   13.624390   38.717613    5.357665
H   19.487926   94.403641   24.025562
H   38.282776   24.192169   92.423660
H   84.870804    5.481203   86.723564
H   64.424133   11.291948   34.912453
H   17.084743   82.588615   15.069272
H    8.317745   99.638428   80.244377
H   24.529373   85.478645   23.238739
H   40.986221   27.907528   76.619011
H   17.115820   40.009888   11.361935
H   75.709068   48.885509   11.178108
H   12.633926    6.988401   28.776392
