100
TIME:    0.500, STEP:   500
H   83.509682   76.168800   98.688248
H   87.361794   31.853912    9.540172
H   88.355133    9.876145   17.469048
H   81.560532   12.049780   12.756103
H   90.692596   12.834725   52.147911
H   20.262962    0.669461   28.261972
H   26.765926   95.099327   29.553423
H   80.587280   31.858288   62.286728
H   41.337044   38.220505   68.615059
H   61.176369   23.564857   27.269297
H   53.746246   86.361221   91.586998
H   36.757214   48.753029   57.338341
H   11.457850   31.456833   75.432487
H   30.324726    3.535652   95.289558
H   86.583778   25.361647   26.737398
H   81.419922   68.004524   91.535629
H   83.867302   15.062790   18.878794
H   11.829123   70.385620   82.212204
H   53.050095   99.327209   89.705078
H   79.114845   95.048706   50.299034
H   34.605835    6.440178   43.672012
H   10.291135   44.759880   76.682014
H   79.068306   90.555748   18.044296
H   72.586105   42.678471   69.941422
H   11.701090   46.520756   40.250809
H   44.366352   12.711358   42.308281
H   18.962831   21.692234    9.888052
H   90.352592   79.777496   83.301773
H   22.043289   94.456169   33.536285
H   20.165648   78.464767   23.136955
H   35.770329   66.880135   69.846062
H   97.327789   38.696892   52.976570
H    5.576561   31.899336   42.840904
H   99.227943   27.900574   50.686729
H   68.343544   21.124161   55.173897
H   16.028137   23.763346   18.923903
H   27.755848   86.224464   47.863293
H   43.323837   49.802792   57.723888
H   28.241703   69.834465   94.203720
H   16.099373   65.375832   77.373650
H    1.073200   73.335915   54.121113
H   86.684013   34.298088   26.290854
H   15.547729   66.498291   37.588707
H   47.430710   21.150900   29.619240
H   13.284538   12.164428   98.893372
H   71.565636   72.603569   85.279045
H   41.359608   52.714085   31.895697
H   56.266117    0.531302   99.515137
H   79.644768   91.039597   24.528379
H   36.376385   38.359715   48.693459
H   43.506474   21.371916   58.688801
H   29.431314   17.342346   41.238335
H   19.250978   24.907898   73.831764
H   65.110107   99.044044   53.879841
H    0.953887    2.337034    4.648890
H   94.191849   12.006468   75.605621
H   27.949684   75.119606    3.541538
H   88.827820   29.668114    0.675671
H   29.710846   59.894897   73.099014
H   26.024033   66.220581   49.388390
H   91.240738   55.317329   75.411163
H   81.165161   23.291428   72.732635
H    8.147110   73.057198   99.255959
H   77.374031   44.514359   13.564550
H   52.169044   20.909668   42.125320
H   70.629585   17.416615   75.749763
H   47.452965   65.646515   91.201767
H   45.827431   46.133041   90.105492
H   81.822472   13.859505   28.873180
H   40.515007   73.293114    0.679340
H    6.154450   61.384403   56.150700
H   32.740040   34.931587   93.229073
H   74.390732   93.575325   48.928547
H   19.185562   17.738375   73.492119
H   86.278732   29.355139   39.301685
H   37.479382   39.617973   62.284695
H   12.351367   83.208122   99.881531
H   55.471237   18.026600   42.053806
H   85.518822   52.037937   23.263634
H   75.004562   81.723824   77.845764
H   20.666439   34.454388    9.872702
H   78.838966   47.492935   44.969635
H   49.432018   15.602946   77.522430
H   84.565277   54.947239   17.760658
H   27.984137   17.607956   99.283180
H   39.785137   27.419678   76.504723
H    0.548580   66.998848   47.385067
H   64.004181   65.262794   90.542183
H   66.059273   66.332939   24.109840
H   22.129433   88.712265   42.086742
H   44.484623    0.430907   44.020824
H   15.281874   33.110405   43.050499
H   17.364815   42.612244   57.596245
H   95.554176   43.561661   60.529835
H   47.947544    4.941908   27.575558
H   35.219559   75.986809   41.623390
H   22.914644   96.374535    8.433411
H    8.700988   20.494873   48.035645
H   84.893303   39.005596    3.169855
H   70.293167   65.862053   49.529037
