100
TIME:    5.349, STEP:  5349
H   55.591225   31.490723   94.248856
H   52.748512   94.717422   15.376689
H   71.702499   58.732346   60.558117
H   82.374420   12.271236   46.966629
H   47.260544    1.503434   20.671577
H   45.074558   95.413124    8.475298
H   72.627983   22.527348    8.751847
H   99.465439   51.357700   17.065975
H   22.139305   72.008820   63.387871
H   28.665453   93.187080   17.149939
H    2.704078   81.471283   24.507076
H   51.686020   91.808540   12.181566
H    2.736200   38.126305   93.518242
H   90.230705   88.588753   64.302589
H   45.563255   92.233505   93.650330
H   86.451675   43.886002   89.027069
H   93.972267   35.765331   60.328918
H   15.452394   34.554188   14.102018
H   28.580921    2.748718   45.167355
H   48.404221   92.222450   80.517433
H   46.859474   23.707329   12.063633
H   75.194183   51.184860   63.761520
H   14.326932   51.119148   79.308746
H   22.058426    0.817843    9.809407
H   38.272491   61.958389   76.043434
H   22.162561   68.530197   87.421951
H    0.828208   20.124889    6.097729
H   81.208443    6.112923   43.583008
H   27.480171   34.394779    4.322725
H    6.098221   58.451988    8.619026
H   26.571510    1.711259   86.183083
H    3.496438    4.726804    4.080325
H   47.134029   77.124199   79.677116
H    4.108974   83.518852   46.405769
H   47.810120   54.576736   50.444038
H   37.616688    4.384992    2.609616
H   92.837860    8.643059   29.945477
H   42.907543   61.067341   99.906578
H   19.288578   64.871391   25.954203
H   59.376606   11.427496   58.883556
H   69.685486   39.719597   68.365822
H   50.882835   51.924751   54.096706
H   57.314907   95.576309   87.837837
H   37.791645    2.425547    3.733371
H   92.669670   20.848343   13.838771
H    9.077211   64.940811    4.892069
H   83.523727   15.734654   76.811378
H   56.525082   50.462936   99.543770
H   21.387535   89.445923   31.099689
H   38.062351   12.146551    9.548889
H   43.136524   53.232208    9.814025
H   65.083824   67.393051   22.909744
H   19.825756   53.024048   92.207329
H   52.818985   19.928268   67.853050
H   14.899540   27.365477   45.844051
H    0.257873    6.907094   10.534225
H   35.355019   35.203773   64.721855
H   27.757679   71.740562   75.777084
H   12.141567   64.777565    0.837029
H    6.040884   38.930370   11.472298
H   97.119232   29.819176   97.346458
H    9.070635   78.154343   53.330338
H   37.203876   42.277267   66.673462
H   10.345386   70.901413   81.914780
H   44.634018   33.628078   93.697762
H   72.748497   76.358482   62.457954
H   58.408325   33.291813   25.312412
H   10.873828   23.452589   21.915731
H   23.495092   65.441307   24.752335
H   38.756050   17.180965   90.469666
H   52.178078   31.454575   97.981789
H   32.917885   74.001999   48.251030
H   58.226669   53.721504   24.599350
H   12.457996   10.881214   85.334465
H   20.068502   36.266102    6.888171
H   52.114014   50.394188   36.009785
H   52.610027   62.931492   85.648094
H   83.286072    0.961864    9.844071
H   18.017757   37.807026   77.362984
H   37.201569   17.632935   60.100098
H   15.543259   84.619522   99.686668
H   42.668488   79.159927   39.497238
H   56.212143   96.573547   39.355663
H   18.152971   69.884567   74.867981
H   91.876778   14.301078   29.226738
H   28.183681    5.530993   13.234132
H   24.402349   14.437057   78.604446
H   42.055626   77.041748   40.116905
H   66.690292   96.348946   84.442879
H   93.414917   89.202682   15.431803
H   42.925804   62.260639   46.422894
H   74.070732   97.775635   35.446960
H   28.334551   88.016945   32.650959
H   64.227272   37.690746   87.474052
H   64.110374   70.599510   38.999577
H   35.727081   84.505829   91.165955
H   38.023552   74.648888   29.563385
H   26.499342   61.781219   70.437431
H   53.899017   59.907734   97.001457
H   71.456955   41.369747   82.454712
