100
TIME:    2.726, STEP:  2726
H   32.973541   72.033257   96.650284
H   25.441658   52.545128   49.955219
H   26.612265   70.023453   91.338661
H   81.934158   20.339212   90.741638
H   70.754517   91.258438   91.792282
H   85.748055   98.254814   48.711155
H   10.101355   45.410828    3.629638
H    5.628075   24.435816   57.902576
H   86.617653   24.199722   28.494648
H    0.347566   55.524681   14.436023
H   46.689148   75.929123   77.166870
H   51.798340   60.330948   98.889915
H   69.860374   96.780426   54.186172
H   20.105461   96.673561   64.691109
H   13.658531   26.529745   19.735510
H   91.917297   73.303131    6.759366
H    4.898397   62.272964   21.546885
H   59.398224   62.135262    5.038338
H   87.724083   92.711380    6.979827
H   19.076431   47.924099    1.931414
H    2.511993   84.835419   83.254181
H   23.724625   47.702789   87.134216
H   49.348000   72.451836   54.356583
H   65.766571   69.375793    4.616490
H   32.085686   69.975769   56.674500
H   34.159550   46.382397   33.663795
H   27.012428   29.159956   54.060917
H    2.530489   83.680183   56.880672
H   70.444931   96.416328   28.312151
H    5.520867   23.371811    0.098256
H   23.339766   66.500305   93.706505
H   37.878395   77.194206   46.904579
H   62.374546   69.035194   43.376564
H   93.280693   23.901016   56.908737
H   13.010140   52.855469   90.723351
H    9.569264   98.625786   11.269158
H   41.257828    4.703066   23.263304
H   51.319382    9.060497   14.808367
H   30.007339   22.021524   80.142746
H    6.435064   56.984970   52.510883
H   48.948147   49.717884    6.569303
H   86.623802   34.202637   30.870378
H   34.721470   79.846954   98.375877
H    5.286078   58.460152   47.267502
H   20.195650   24.337582   89.381813
H   42.918438   14.911060   94.238197
H   63.030598   73.086700   51.626579
H   56.384998   23.450037   37.247337
H   44.712296    6.682903   35.732613
H   83.055809   72.236732   93.005157
H   43.336643    6.465536   82.159348
H   37.610523   10.786385   95.104271
H   65.427315   37.815002   44.548035
H   13.566967   62.733727   52.106964
H   23.743210   97.480469   23.536573
H   96.977066    9.667055   99.827332
H   69.067116   10.889440   15.252861
H   23.072845   19.450527   43.340897
H    5.271469   53.949139    2.206308
H   79.130478   37.317692   86.076668
H   31.659349   51.799191    1.856195
H    2.163303    2.569376   72.012970
H   59.136700   21.260576   46.544113
H   30.228514   56.623260   53.132053
H   40.521908   43.123127   49.428673
H   33.882607    6.755342    7.367508
H   68.856392   42.607075   98.672806
H   92.062172   73.439880   96.521164
H   92.764946   53.913353   89.262276
H   85.613098   85.252998   95.992950
H   35.470497    9.922372   29.449341
H   49.195526   61.054474   56.207596
H   29.251791   83.467216   91.851067
H   70.201164   76.873520   41.194267
H   93.603416   32.523876    8.046925
H   90.101372   82.284172   12.504795
H   14.457735   90.275284   39.260502
H   60.052761   72.475182   64.988419
H   92.234955   45.511608   48.094711
H   65.837166   60.491695   86.073929
H   64.227829   57.483379   42.914997
H   45.859253   62.030411   58.831154
H   90.274124   52.758118   89.537994
H   37.694889   45.428925   14.439789
H   19.595768   78.372009   83.497368
H   88.551453    9.184109   31.085049
H   49.218102    5.150528   53.529541
H   99.838379   87.044373   67.395088
H   12.254635   42.392448    5.897649
H   25.323200   97.118729   21.666225
H   35.581787   20.628365   91.029861
H   79.987473    0.517913   85.465721
H   60.189365    9.314421   29.806450
H   10.705500   78.585472   10.619237
H    9.459019    5.550403   78.727715
H   19.078049   88.084969   26.647705
H   46.225052   24.119900   80.414696
H   16.873617   39.447937   12.417984
H   78.853172   48.601009   16.706474
H    8.535110    8.683657   35.133209
