100
TIME:    3.794, STEP:  3794
H   60.749420   74.092224   95.672501
H   95.732506   10.448671   17.324018
H   44.970146   46.859245   78.806740
H   82.113419   76.337090   32.200588
H   61.188538   76.863335   62.833603
H   69.190926   97.097771   54.479149
H   54.125668   17.526073   87.148674
H   21.685379   16.831646   59.842388
H   60.364174   21.515884   61.269512
H   71.160789   70.859581   56.260696
H   47.346390   18.902088   74.291603
H   11.032928   13.864059   22.867762
H    1.926712   32.165253   48.035919
H   67.224297   93.381691   45.965771
H   26.650826   31.131615   68.399818
H   48.976318   79.891899   18.106150
H   19.016365   32.914249   18.771139
H   82.214806   10.198449   68.012390
H    4.361383   37.516792   63.243122
H   90.302422   25.246462   74.645805
H   39.135376   78.512939   54.265648
H   26.114822   49.120575   96.184158
H   35.088661   63.765862   23.799763
H   66.537788   82.184753   25.297604
H   93.889557   85.276138   64.559364
H   29.260206   14.561561   33.559280
H   34.917759   84.765335   75.250038
H   12.415504   33.530792   92.180290
H   93.667282   93.313614   77.828102
H   46.471573   96.937859   85.000977
H   65.375191   62.269901    9.209740
H    5.312735   47.685959   48.034462
H   37.601612   90.895592   39.590439
H   38.407562   26.025185   11.916233
H   86.462082   72.122765   55.755257
H    2.434861   82.524323    7.590649
H   43.692825   65.591293    7.417678
H    7.180211   89.517738   90.173866
H   84.926697   98.754143   76.645592
H    5.841404   57.002403   36.538166
H   75.958908   86.365280   31.730696
H   90.638016   82.135376   81.046860
H   43.920780   86.251434   75.517632
H   37.085938   76.356110   51.690659
H   27.554594   82.199097   80.773376
H   29.139843   35.281544   98.573036
H   71.375290   31.169094   61.885155
H   56.442036   34.446930    3.329160
H   75.931137   18.230896   93.129364
H    5.449016   88.484230   18.307507
H   43.255161    3.356933   93.420151
H   89.514511   11.684063   24.992680
H   87.574104   44.007629   82.520210
H   88.833519   45.304741   99.236115
H   38.709732   91.083923   32.616016
H   98.313370    8.543295   63.470093
H   36.774654   80.072319   16.828558
H   43.546867   18.591103   15.830214
H   89.501808   99.073837   20.215313
H    8.654794   19.407164   55.700203
H   99.028633    2.134648   18.586246
H   64.258141   92.628067   23.687386
H   31.634577   48.387627   73.304497
H    3.566136   62.432922   24.132633
H   82.913322   57.824368   48.888020
H   68.273750   53.661812   70.514694
H   83.168533   79.529968   50.236980
H   18.288429   34.520767   47.577740
H   45.995491   77.173691   22.279049
H    7.253244   38.969833   93.744049
H    1.554926   37.256477   16.636307
H   61.133492   25.609833   34.400410
H   59.615707   30.639477   64.473137
H   46.691830    9.287174   77.727684
H   45.094921   34.047588   89.008583
H   15.348435   50.733246   40.641354
H   11.425203   97.707565   58.148014
H   10.229350    2.639651   23.967897
H   43.448105   42.374554   60.015518
H   13.460480    2.323807   94.064812
H   85.119797   68.532333    6.747697
H   25.992691   69.005264   69.525513
H   57.845455   70.586365   91.259735
H   11.171759   36.820137   16.894073
H   67.592972   11.566858   79.966721
H   63.976490   48.415291    5.250026
H   20.547415   27.498222    4.455875
H   17.027033    1.537590   56.286613
H   34.421005   82.928612   97.160774
H   30.897703   53.181664   59.841614
H   79.288696   78.295952   13.584146
H   59.013496   80.832573    5.819117
H   28.656334   41.356384   12.400370
H   13.931799   43.367142   82.628136
H   90.993538    9.885586    3.269797
H    7.290473   45.909920   71.483849
H   61.452423   85.410606   18.992750
H   20.792898   48.541321   95.327492
H   27.975853   53.204739   27.249542
H   74.870125   81.272530   32.251617
