100
TIME:    8.038, STEP:  8038
H   73.745110   84.898338   91.787003
H   78.486832   40.431942   84.927078
H   17.936785   52.189621   28.985832
H   82.825760    1.483898   99.571724
H   23.171656   17.038395   47.761536
H    3.368218   92.499931   74.776680
H   31.699001    4.101016   19.035236
H   88.115341   83.990990   70.172081
H   56.038490   13.471925   94.123337
H   55.213539   31.798769   22.439995
H   52.579849   89.669113   65.487732
H   49.054489   26.593792   20.775299
H   31.193245   75.455887   26.312941
H   57.087364   80.300514   68.936394
H   78.235542   52.039047   64.352081
H   78.332397    8.696129   65.816681
H   77.738838   13.622738    5.119206
H   72.953934    3.710023   20.889652
H   70.456940   15.556287   86.835114
H   75.957382   35.117840   63.597023
H   87.290413   56.009762   39.078411
H   32.991230   54.754547   34.768311
H   78.423317   29.250978    2.372798
H   72.212524   32.986053   10.101621
H   42.098701   48.707283   95.902382
H    9.707546   89.143234   34.470634
H   68.954117    8.345929   59.457531
H   54.317947   31.626364   32.465340
H   85.949181   78.362350   77.211754
H    9.206236   91.898666   22.386356
H   32.400806   42.838539   73.438103
H   73.281548   30.430294   55.146141
H   36.542698   80.384254   21.923475
H   17.726357   37.087898   33.122253
H   80.911995   51.080620   14.089718
H   71.367355   14.999623   94.155952
H   50.747356   10.165815   41.828213
H   31.767502   11.851229   89.661018
H    5.784138    6.283792   65.370415
H    6.104053   59.693497   70.448608
H   85.911514   31.985723   31.716276
H   22.815208   73.124176   90.314598
H   80.462250   11.705410   82.066322
H   66.088791   47.559837   66.647491
H   59.417953   14.755238   43.943634
H   74.368248   16.226494   15.816542
H    4.534301   61.971992    2.621490
H   56.678219   78.158783   65.923439
H   99.991585   66.741951   23.834362
H   94.499756   53.076939   21.515106
H   42.949665   93.626137   38.159454
H   95.774918   17.871740   46.392303
H   75.602974   68.615784   36.037453
H   90.551514   76.058792   86.511612
H    0.796916   63.017799   68.714539
H    3.607078    4.078527   18.994308
H    5.827117   57.613380   20.468269
H   27.529451   17.797407    6.513881
H   24.214211   78.402916   94.408722
H   28.593872   45.616138   34.990746
H   66.743820    4.768093   87.690407
H   13.633614   53.125504   31.659889
H   19.759968   58.784454   82.280670
H   94.994560   85.549438    8.905852
H   51.366058   18.862280   44.113174
H    7.561638   42.680473   21.453648
H   42.665039   26.257450   55.137066
H   25.126274   77.238945   50.465485
H   57.516464   72.226921   56.104568
H   93.272346   52.371044   84.795135
H   66.789726   48.496964   65.731514
H   11.357995   84.706444   45.227955
H   82.898239   20.720110   55.657604
H   53.258389   40.694584   25.562548
H   49.669342   40.150730   10.748169
H   15.678731   22.732815   55.073044
H   96.804405   30.091194   33.296143
H    9.619172   25.137966   58.349720
H   46.963562   29.908581    7.360373
H    5.334644   71.151421   28.440224
H   68.172279   12.439157   60.403198
H   44.461197   96.598190   14.545441
H   26.295565   41.541904   95.441025
H    3.151410   99.987915   29.270199
H   60.946518   46.094921   68.559074
H   66.300095    4.302176   99.966171
H    3.994649   18.924400    6.826187
H   85.302177   61.866432   12.236420
H   22.496059   46.628929   62.450325
H   55.672314   78.571548   11.556887
H   52.970783    7.460983    3.209766
H   73.029503    0.014236   86.683098
H    0.704915   68.699883   40.595459
H   24.107805    0.829057   68.788780
H   17.619209   29.734550    0.792015
H   57.827438   78.320374   52.275826
H   24.583570   28.963055   74.915855
H   22.762117   84.179558   17.518236
H   25.801079   71.512230   71.771309
H   38.482029   72.363632   23.413898
