100
TIME:    7.153, STEP:  7153
H   33.593582   66.056465   92.597244
H    2.928764   92.473869   29.124386
H    2.724204   88.519798   39.376202
H   82.677216   37.947601   48.083111
H   31.101896   46.101833   71.758194
H   17.093510   93.458717   87.131821
H   78.080658   44.343037   49.827068
H   57.674599    7.427951   51.429764
H   77.793480   98.561493   49.831646
H   79.385750   19.091478   87.786629
H   34.900391   54.058994   50.735893
H   82.831055   82.233658   83.770988
H   87.626579   29.023205   14.261391
H    0.907898   83.028328    1.585559
H   67.486336   31.091606    6.915814
H   13.916695   86.101379   39.279785
H   48.905434   55.085087   24.554163
H   54.031231   46.773972   51.565277
H   56.672916   78.431061   40.209148
H   99.805496   53.908695    3.342115
H   39.807556   44.113983   63.095325
H   48.145416   53.579697   10.134216
H   90.239342   36.447334   27.695318
H   54.441727   22.398897   75.830292
H   73.752144   18.891014   89.366432
H   13.880291   15.231030   17.753401
H   45.267986   45.135834   41.895542
H   28.992668   90.317574    3.211447
H   66.705940   98.068428   19.045847
H   75.271118   13.803259   52.031364
H   97.570000   63.477966   43.456413
H   17.401882   54.879337   37.075005
H   74.205452   45.134499   42.195686
H   80.332817   18.192825   70.406876
H    2.937196   18.087532   60.247269
H   94.436043   45.682693   96.937782
H   65.863876   42.577759   72.093781
H   68.343987   28.048878   27.208862
H   43.142620   25.564169   51.133301
H   89.460777   42.543552    0.817223
H   46.394379    1.621768   10.866472
H   97.397957   69.653641   45.132938
H   72.845978    6.396639   18.143093
H   22.600834   32.705406   80.117668
H   36.186172   49.669964   68.211617
H   85.792656   99.349380   12.221094
H   97.617477   13.842362   94.125771
H   56.624203   69.043564   11.164757
H   74.117867   40.038197   59.139862
H   75.918213   39.606670   83.394630
H   43.010433   79.067383   28.829319
H   52.764584   99.992950    4.486810
H   57.248516   63.484253   87.433784
H   11.046982   90.494598   47.457962
H   71.262344   85.459724   61.190273
H    2.504812    5.009461   49.121796
H   49.720150   83.149498   36.297356
H   93.428879    1.374461   29.311354
H   54.418076   41.006107   62.349083
H   86.994698   77.591904   60.162254
H   10.917042   45.923393   56.690826
H   45.043983   61.362961   71.704758
H   59.678860   19.175102   42.967773
H   34.223125   80.728500   32.935772
H   16.236843   89.546051   61.696781
H   61.927338   86.676598   69.125031
H   13.669798   95.660889   12.408774
H   86.259010   26.625490    8.157363
H   13.405655   35.817368   11.608171
H   75.302208    7.916214   86.670959
H   94.891609    8.711679   76.345680
H   84.230278   14.098020   80.359215
H   40.602631   64.494217   78.346985
H   72.740974   96.706482   78.146820
H    7.039101   38.847591   43.646900
H   94.756950   66.014427   14.623641
H   16.427773    6.689563   17.600805
H   68.041275   83.003532    9.472114
H    4.526763   32.508106   97.485115
H   48.734879   19.361732    4.683892
H   50.846611    3.283425    7.507648
H   78.051582   90.858978   88.584312
H   70.319496   26.741491   11.158247
H   42.264332   24.256977   10.101694
H    4.037870    1.459102   54.349220
H   86.664169   71.797531   38.509338
H   44.887486   83.271095   64.625999
H   71.068932   32.683353   21.412407
H    4.127384   95.905128   69.688484
H   33.917248   14.981190   79.918594
H   16.752979   59.671654   84.520065
H    7.548464   33.452881   69.816566
H   43.974506   42.145405   72.157051
H   38.576324   47.137047    9.114738
H   32.922447    9.006805   80.455017
H   84.730042   13.268004   97.986961
H   94.831169   78.175797   25.813721
H   24.470377   40.389637   35.285538
H   67.960655   67.690590   45.899082
H   83.511391   95.077408    8.668622
