100
TIME:    9.159, STEP:  9159
H   97.936676   82.097755   90.760696
H   47.526596    1.175616   55.610241
H   37.205685   32.838509   15.827703
H   83.013916   55.299980   38.126595
H   13.126684    6.891424   17.367828
H   85.988159   91.285469   85.792511
H   72.945717   79.797859    6.698910
H    0.006956   80.971573   67.245689
H   28.482170    5.691473   23.560400
H   24.594370   47.894672   66.332619
H   48.307159   34.773148   57.506966
H    6.266075   82.784050   40.981010
H   59.710632    7.606791   14.911591
H    1.583097   76.845284   54.244953
H   91.851204   51.905800   10.445297
H   33.260452   10.649381   72.763733
H   87.594643   87.767616    7.168256
H   96.925339   49.161934   82.029861
H   87.921249   62.586765   45.892498
H   45.754940   11.312372   39.919884
H   20.768669   44.410332    8.653433
H   40.462597   56.242691   39.304810
H   63.456352   20.138235   70.300568
H   68.055588   46.396454   26.846849
H    2.006822   59.806969    4.179286
H    4.420519   56.096176   28.978987
H   72.288918   61.750210   81.695908
H   59.730949   83.950867   69.522270
H   10.324588   80.068260   24.220776
H   52.189430   64.154190   11.503006
H   76.520988   43.360828   84.748169
H   44.062092   99.460526   51.369560
H   15.504080   98.366867   22.912008
H   65.091675   34.354919   85.897820
H   53.013573   66.205177   82.293961
H   68.813721    2.804212   90.632301
H   58.265533   69.112556   30.158590
H   85.433418   91.338402   68.765312
H   58.469540   81.858788   56.737152
H    0.518410   54.749054   58.646652
H    9.299028   70.447983   58.126553
H   28.343369   77.520187   47.543438
H   90.109528   18.430626   63.035648
H   94.513466   66.382912   76.252022
H   62.179436   70.535713   39.872807
H   59.899757   37.604717   20.370775
H   13.298347   22.936216   13.386858
H   56.746639   89.704727   35.284168
H   32.756660   73.901283   79.118622
H   18.031271   70.142357   43.135746
H   42.872692   85.400887   49.979080
H   50.256710   13.851437   72.804665
H   98.848808   75.115723   70.933334
H   64.585968   57.770523   35.976814
H   11.541477   61.256767   78.242081
H    5.003283    2.899344   80.832809
H   76.892120   25.267632   27.084677
H   44.057556   11.932470   77.639915
H   12.629566   25.769445    8.348597
H   54.618237   31.779438    3.106834
H   37.458431   52.634190    0.289553
H   73.847099   42.691391   80.939949
H   95.864853   82.289085    5.410339
H   71.972961   91.655960   78.473724
H   95.858856   29.329388   48.506672
H   38.696938   86.952660   87.735924
H   52.724960   65.009918    9.258224
H   47.691040   41.350899    4.055771
H   13.384378   91.679016   85.796234
H   16.039520    8.678282   82.417526
H   31.186222   72.221306   52.286903
H   19.046091   47.485741   27.397156
H    9.807955   65.267113   26.912479
H   28.584278   69.745705   58.956795
H    3.669869   41.801373   95.743286
H   42.183060   94.578606   79.644333
H   98.615067   33.065754   53.180824
H   62.278790   51.842598   20.266747
H    0.722098   26.615849   19.871279
H   50.359123   10.084877   31.865105
H   90.118126   24.036417   27.404366
H   28.580353    3.871839   20.762335
H   97.200417   60.289097    2.199167
H   80.273170   95.914406   26.884350
H    6.364136   75.969162   59.891312
H   40.497807   45.479836   77.811905
H   78.863747   37.418251   60.279655
H    3.330688   72.163185    0.613437
H   45.760746   84.214088   53.281990
H   56.560955   32.450340   51.627533
H   98.846672   67.988251   26.883446
H   55.972149   84.323990    8.044457
H   72.563095    2.329080   27.284113
H   32.447311   68.838852   44.374844
H   98.235657   29.322193   26.549284
H   50.417450   34.052368   94.374466
H   35.603630   93.295143   10.445478
H   20.598322   39.647633   95.011253
H   72.399437   76.352974   77.875587
H    8.113024   43.598919   15.423988
