100
TIME:    5.345, STEP:  5345
H   55.861732   31.857529   94.252518
H   52.858986   94.500687   15.124476
H   71.633713   58.444565   60.605083
H   82.373749   12.436047   47.185898
H   47.296371    1.182819   20.780022
H   45.136600   95.417458    8.079157
H   72.837639   22.257236    8.439042
H   99.779831   51.011662   17.433254
H   22.237633   72.393402   63.639671
H   28.774752   93.129646   16.993292
H    3.076146   81.310333   24.892376
H   51.838699   91.608040   12.466280
H    2.991447   38.368187   93.915703
H   90.428764   88.601082   63.998207
H   45.514610   92.590805   93.842590
H   86.612503   44.235855   89.359100
H   94.293922   35.500774   59.964783
H   15.366860   34.748798   14.240675
H   28.518620    2.580906   44.956631
H   48.511978   92.307411   80.245094
H   47.096840   24.105553   12.172199
H   74.810699   51.179550   64.102158
H   14.380345   51.151680   79.423187
H   22.430084    0.769991   10.106488
H   38.415558   62.275620   76.013893
H   22.180796   68.648422   87.798111
H    1.173134   20.291164    6.018357
H   81.545967    5.926216   43.450775
H   27.393196   34.031864    4.511801
H    5.944848   58.550987    8.301048
H   26.414085    1.352578   86.499550
H    3.243879    4.837312    4.450621
H   46.852261   77.416862   79.316765
H    3.939960   83.885429   46.574287
H   47.909546   54.879105   50.200478
H   37.268970    4.071687    2.622195
H   92.454193    8.789558   29.630291
H   43.072857   61.140553   99.624290
H   19.457432   64.958549   26.341822
H   59.753345   11.801970   58.568829
H   69.958862   39.582359   68.271584
H   51.242332   51.745216   53.908810
H   57.280453   95.552322   87.548897
H   38.047047    2.358404    3.342278
H   93.016655   21.006149   13.496470
H    9.128832   64.864517    4.875819
H   83.492477   15.517110   76.772987
H   56.524868   50.421738   99.296272
H   21.270622   89.777222   31.259251
H   37.978458   12.085669    9.828644
H   43.136829   53.618378    9.771857
H   64.889427   67.764206   23.172348
H   19.742779   53.000854   92.439629
H   52.911606   19.993546   67.676537
H   15.218037   27.014936   45.810024
H    0.252891    6.911302   10.670395
H   35.101448   35.319191   64.341423
H   28.055515   72.118309   75.880112
H   11.826099   64.608559    1.144101
H    6.304838   38.622906   11.586067
H   96.866913   30.005196   97.658348
H    9.212587   78.191574   53.511337
H   36.932301   42.550217   66.947754
H   10.070712   70.879623   82.023361
H   44.475235   33.947567   93.325264
H   72.994225   76.557335   62.221443
H   58.729248   33.153538   25.119282
H   11.150142   23.223814   21.724508
H   23.295721   65.728722   25.003220
H   38.675026   16.979778   90.478088
H   52.305092   31.726730   98.029762
H   33.247688   74.134750   47.958153
H   58.487473   53.919350   24.701920
H   12.546040   11.134373   85.572136
H   19.875647   36.260395    6.584937
H   52.019440   50.137810   36.278919
H   52.246838   63.278202   85.577354
H   83.098145    1.223417    9.623162
H   17.825954   37.818775   77.318367
H   37.397705   17.850830   60.444702
H   15.464989   84.578140   99.447594
H   42.368286   79.133987   39.831833
H   55.959122   96.506653   38.974712
H   17.877779   69.542282   75.233337
H   92.071541   14.551284   29.614494
H   28.275753    5.384067   12.956353
H   24.135199   14.727890   78.413712
H   41.991295   77.361816   40.158379
H   66.607285   96.571663   84.475594
H   93.768555   89.367233   15.288820
H   42.762108   62.044666   46.338421
H   73.774773   97.474792   35.370758
H   28.078142   87.896950   32.341633
H   63.840691   37.448071   87.204338
H   64.179527   70.957787   38.907658
H   35.396698   84.663788   91.372559
H   38.341057   74.419334   29.793427
H   26.484663   61.747162   70.501457
H   54.089569   59.890491   97.336479
H   71.208481   41.472378   82.840027
