100
TIME:    3.500, STEP:  3500
H   80.631744    1.053576   95.941666
H    3.910787   94.508743   98.779007
H   39.916573   25.707691   82.256538
H   82.064072   88.449516   48.316845
H   63.821869   53.297939   70.805374
H   73.748787   97.416283   25.362478
H   69.533928   97.673515   64.157494
H   44.793198   91.396744   86.835503
H   67.591255   49.782700   79.774940
H   79.195366   66.638176   44.747162
H   74.693558    7.072686    2.612134
H   22.254868   99.127792   43.794853
H   20.627743   49.952576   77.257042
H   81.781639   94.287880   23.591427
H   23.074295   57.393112   82.530983
H   60.797150    5.606249   42.511086
H   42.658028   13.469245   92.007156
H   75.934288   24.495827   78.204773
H   99.782402   25.182306   47.754917
H   98.224846   31.489969   54.628899
H   56.581757    7.780695   62.244148
H   97.928757   48.730286   21.220917
H   39.013985   66.156944   32.212265
H   93.853554   78.658691   47.133617
H    4.404662    8.591148   62.388100
H   30.609396   23.321669   61.115051
H   60.270863   96.985428   69.418129
H   37.222111   19.807861   82.463432
H   87.274612   66.639359   91.725990
H   35.198044    4.214591   61.628479
H   53.803600   35.907429   32.470085
H   86.749428   55.808014   75.251534
H   16.892424   12.405815   13.104596
H   25.985054   52.968605   24.301189
H   93.769913   94.346825   37.853539
H   76.868767   59.429516    8.605512
H   15.494889   76.357895   84.251701
H   19.331177   94.896553   69.425728
H   97.335205    5.159365    5.136543
H   33.532818   84.525101   13.406576
H   96.052078   76.276077   24.804182
H   17.061119   68.941803   67.234207
H   41.388386   84.488403   54.281536
H   55.860199   71.430389   22.945723
H   53.055935   93.800110   55.615414
H   32.932827   29.673939   97.379738
H   69.078415   15.179570   59.061165
H   56.426334   31.419039   85.138115
H   67.335800   42.579117    4.856639
H   99.283165   84.011604   38.869473
H   43.277592   31.741505   90.320267
H   75.226334   38.965347   44.294056
H   81.477516   42.302917   99.594246
H   95.643394   50.102608   86.262360
H   62.118118   65.315857   30.115870
H   97.945511    8.852835   73.478546
H   18.137217   88.555504   88.866493
H   65.438957   46.356018   23.403831
H   66.313240   86.651871   42.786457
H   28.055077   96.808838   64.062263
H   80.483162   15.806550   41.507893
H   74.692772   95.364578   36.990868
H   11.674867   68.449394   93.464958
H   83.378532   60.833633   32.115620
H   71.245018   81.305122   21.509020
H   86.334724   68.277473   53.131119
H    6.756633   69.364502   36.043011
H   38.596931   17.705973   33.522839
H   31.341698   98.298660   40.719097
H    1.296910   24.182051   94.363129
H   10.891027   57.259926   20.163490
H   85.376022   35.367065   12.874930
H   78.784744   45.181118   72.009758
H   53.165249   27.892086   95.196495
H   30.921053   33.628139   66.721718
H    8.397809   31.889456   60.422741
H   84.732460   23.189560   52.948643
H   96.416687   21.863710    7.730798
H   29.350584   43.238125   56.733948
H   27.878853   18.335777   19.392960
H   79.368637   65.490768   89.175949
H    3.932679   67.085220   94.109253
H   39.243908   65.678589   63.257603
H   90.944626   11.661367   43.745529
H   81.908066   29.957424    8.466663
H   70.741516   37.615044   84.833740
H    0.911803   48.874413   90.436737
H   12.295336   25.075714   59.343880
H   28.319256   99.298332   99.565315
H   56.892269   65.278152   49.332962
H   67.257019   62.419926    7.375405
H   37.258232   58.724617    0.216761
H    9.811233   32.534500   89.664818
H   85.516060   25.533123   62.804268
H   96.076271   36.221142   96.514030
H   83.007217   57.519905   86.669243
H   84.789032   68.538445   35.901665
H   19.713995   46.038086    0.033377
H   41.981407   51.937420   51.875900
H   56.608189   88.818123   60.574509
