100
TIME:    4.197, STEP:  4197
H   33.495758   37.134979   95.303543
H   84.564919   32.293037   42.740288
H   51.897324   75.853157   74.077934
H   82.181061   59.734001   10.110576
H   57.578903    9.165561   51.906311
H   62.942722   96.661171   94.388786
H   33.005924   44.739765   18.663874
H   90.010368   51.695057   22.839024
H   50.457664   82.768890   35.900608
H   60.147408   76.646065   72.041290
H    9.860306   35.117771   35.473385
H   95.651375   34.064400   94.182457
H   76.247910    7.788898    7.987136
H   47.269844   92.139534   76.634094
H   31.553349   95.134735   49.027172
H   32.772934   44.644157   84.653259
H   86.609291   59.568356   55.457817
H   90.823814   90.600410   54.039005
H   10.638050   54.424271   84.476517
H   79.442772   16.688185    2.083924
H   15.220779   38.392994   43.329132
H   64.750824   49.655563   61.864960
H   29.708031   60.488289   12.268552
H   29.094749   87.018097   95.366730
H   79.475616   53.317238   67.535622
H   27.414026    2.579629   95.751976
H    0.166429   68.014664   83.244118
H   78.410767   52.341476    5.500607
H    2.430187   29.876366   58.777596
H   61.924744   86.963707   17.038048
H   81.234215   98.409142   77.325661
H   30.758223   36.552666   10.726707
H   65.989601   61.409737   75.895859
H   55.434952   89.092804   94.938972
H   76.444885   41.659172   80.296051
H   37.475346   14.156269    6.233620
H   82.345657   50.832993   39.172413
H   90.522789   82.144737   18.612659
H   67.917755   89.972954   37.591438
H   67.882088   19.273941   68.246582
H   48.416229    0.195003   41.225201
H   54.418686    0.220470   99.980530
H   47.392056   88.668106    4.628076
H   11.352385   83.108032   91.095215
H   92.597084   66.297028   15.259284
H   23.940617   42.968159    0.209070
H   74.523727   53.085228   65.754738
H   56.463558   38.597702   28.264473
H   87.713181   84.854156   77.055115
H   13.901217   94.615074   90.121071
H   43.224415   64.450249   97.669312
H    9.099295   74.289658   98.535614
H   95.930992   46.344360   59.115360
H   79.498894   38.728073   17.018410
H    6.622935   26.403177   36.044247
H   98.817612    8.118994   49.751022
H   62.321888   68.444008   55.157097
H   13.538386   80.532631    5.449440
H   21.285452   16.102127   89.277214
H   82.059860   50.384220   44.237923
H   24.450808   83.391869   87.164803
H   49.954887   88.876999    5.452052
H   58.995831   20.887371   45.669579
H   31.239546   64.626022   13.189968
H   98.907631   25.636204   86.417152
H   43.516701   33.627419   94.343201
H   50.835556   93.464264   69.693344
H   90.450142   57.568314   66.843468
H   66.081833   48.216675   97.003204
H   15.417967   59.240974   92.895447
H   88.758156    9.835714   11.801426
H   27.905602   12.234906   63.907787
H   33.339783   10.706547   54.139389
H   37.818401   83.785378   53.782341
H   64.523689   34.622547   19.559153
H   24.876711   76.561852   13.525072
H   48.015701   62.779476   65.275047
H   29.163021   76.289757   46.225258
H   62.772255   41.190815   64.513374
H   93.696289   80.376808   59.345909
H   93.003189   72.701553   30.833231
H   56.231834   71.637161   35.827393
H   83.341164   77.313690   29.643536
H   38.896996   71.305367   80.085556
H   47.970581   86.359825   40.900269
H   54.700283   63.219711   33.235748
H   47.462868   98.196823   23.672804
H   23.512999   69.272301   52.095871
H   42.784042   60.489845   93.864754
H   95.267044   36.600098   74.248520
H   95.781097    0.058292   22.094767
H   88.831924   11.137156   13.498686
H   54.489311   53.448967   43.564983
H   52.884449   67.813171    9.801191
H   84.026390   73.788475   12.529862
H   40.576599   29.995747   50.668495
H   29.463928    8.537812   95.815338
H   22.271803   51.972626   88.876884
H    8.777763   54.941914   93.493599
H   99.903893   70.929420   93.429535
