100
TIME:    1.267, STEP:  1267
H   31.639830    5.831007   97.986038
H   66.026329   73.440926   57.922207
H    1.533752   65.057091    8.463211
H   81.689270   80.449242   70.715935
H   83.822647   74.313164   31.350807
H    8.369289   99.835457    4.220474
H   86.566826   46.892223   89.533821
H   20.302597   98.214249   91.861977
H   22.482719   64.476501   20.333570
H   40.215416   34.575600   57.306305
H   82.401779   17.222721   17.705961
H    7.480930   87.198997    2.743062
H   62.667076   85.052010   99.199883
H   92.347511    1.170880   53.660229
H   95.911461   56.851383   89.868668
H   50.581223    0.914625   27.868637
H   22.202072   65.785721   88.712975
H   28.219490   33.086594   55.621872
H   64.993996   31.505655   30.112986
H   58.381004   78.907822    2.595910
H   89.091064   30.083549   22.856068
H   83.835991   45.772232   11.371919
H   68.827751   84.317787   96.098907
H    1.323479   51.877415   12.975367
H   84.269157   85.690468   45.910545
H   40.849453   89.856689   70.416138
H   52.824554   89.809341   25.108442
H   25.635757   15.578958    8.652354
H   38.720764   64.044098   97.281303
H   49.575344   59.481705   84.111717
H   65.941933   35.662827    9.152859
H   45.756260   17.507721   81.971550
H   59.604580   75.782661   11.938321
H   31.635628   57.609718   18.374624
H   49.278557   63.144661    1.881202
H   82.715332   84.013321   16.284765
H    1.321219   58.136086    8.299935
H   11.624729   35.764454   11.850798
H   93.760269   53.461281   20.690643
H   43.856026   93.570671   37.718960
H   48.655098   99.657066   72.194504
H   17.750450   68.723106   62.325901
H   22.154249   71.097763   92.990242
H   98.453392   34.004715    4.614940
H   46.752319   81.900925   64.530838
H   61.741444   87.082863   88.316353
H   49.458424   94.087524   38.449654
H   56.307079    8.428366   46.972698
H    2.068172   27.516411   93.932388
H   52.462833   50.033947   95.049889
H   43.447956   47.323097   66.775909
H   66.706734   46.171154   90.885208
H   35.161873   29.355225   29.283894
H   47.350422   86.533012   87.726334
H   39.894386   69.577728   11.157494
H   95.151535   11.200390   49.495132
H   76.573349   52.988304   76.489647
H   31.714767   57.235268   80.920120
H   90.202873   92.301865   14.214687
H   75.409073   25.173559   27.573082
H   39.624432   19.650940   15.611052
H   53.942841   16.152298   38.027405
H   60.173859   20.753666   46.637062
H   30.041498   48.686653   92.740227
H   82.612099   59.651890   13.554074
H   23.511330   79.286781   21.100279
H   85.914505   92.166626   28.233723
H   92.845284   89.997726   26.772528
H   20.048653   58.747787   80.768776
H   56.051392   11.869024   99.065186
H   81.798912    9.193964   46.951756
H   69.496292    9.476118   49.385979
H   24.381268   55.633900   29.260830
H    2.304426   69.202560   27.907021
H   23.259441   30.446489   97.444633
H   55.613941   88.775536   10.677093
H   81.990654   16.731619   13.453150
H   91.506287   67.875999   84.411774
H   22.282877   49.790867   31.815960
H   37.389542   39.950691   11.767947
H   35.676167   42.389355   55.714062
H   36.387119   52.502029   80.831497
H   97.964638   28.403685   50.575321
H   37.328411   20.580423   47.703560
H   90.636612   69.633652   24.930901
H   22.130421   55.595356   29.767723
H   51.774788   11.231712   83.958481
H   76.351364    3.855629   82.572105
H   81.976021   23.627474   17.833843
H   54.318466   57.149223   69.508018
H   75.873390   41.845814   60.218456
H   72.032127   90.796913   57.662308
H   66.577126   65.592453   16.933386
H   69.688881   90.085609   12.246373
H   34.687489   36.239670   45.200279
H   98.570557   45.698174    2.006574
H   62.033798   40.390865   64.322769
H   11.517140   27.025421   35.764534
H   48.355003   42.311832   38.920231
H   17.926407   46.159779   75.655586
