100
TIME:    6.449, STEP:  6449
H   81.202957   30.615988   93.241776
H   22.369595   54.327000   84.735817
H   90.618820   37.870384   47.642315
H   82.559052   66.951508   86.671265
H   37.407944   89.673218   90.847061
H   28.012943   94.221413   17.411995
H   14.978583   96.804192   94.773277
H   13.007614   46.521839   16.067554
H   95.099144   66.248322   94.144890
H   98.614265    8.982147   60.222172
H    0.384766   25.731848   18.549522
H    9.699173   46.945576   33.881660
H   32.542740   71.606636   84.216484
H   35.764458   85.198250   48.012516
H   58.935555   93.976372   40.769840
H   42.224075   47.675941   97.717285
H    5.516848    8.522859   60.466255
H   38.976055   81.030807   75.968788
H   45.710514   48.898041    3.121664
H   18.770889   68.858192   55.410515
H   81.583923   14.198574   82.205421
H   80.652252   52.645126   70.086365
H   99.638756   42.172920   47.837494
H   19.852531   13.977022   28.114279
H   98.931831   74.722504   84.167213
H   17.148142   36.011070   83.982018
H    5.974030   74.401016   27.925329
H   88.393936   57.457222   79.943314
H   51.398323   34.195385   52.324097
H   48.276005   31.227257   96.066025
H   69.865898    0.350425   99.154655
H   72.951080   74.330917    2.247839
H   24.615646   96.643288   78.773804
H   50.587700   82.710403    0.066049
H   20.458511   71.390266   17.412798
H   33.237804   90.541801   99.150673
H   98.342384   68.359009   16.621130
H   97.444572   40.934132   77.529076
H   72.859283   40.902885   19.356234
H   55.769054    8.449137   45.428661
H   94.508636   77.462914   94.281349
H   56.727402   66.892899    9.193246
H   66.787384    2.173471   67.291069
H   67.551941   20.888998   11.285129
H   97.253059   77.446487    7.968357
H   94.880547   85.921646    9.360987
H   92.117477   75.556351   87.368935
H   56.583828   61.792587   67.605499
H   53.538567   98.344582   87.220871
H   61.138004   28.890558   32.617477
H   43.058773   47.034409   21.409153
H   18.544479   65.321320   50.699532
H   42.644512   59.402222   28.320436
H   27.348251    1.978705   16.392906
H   27.316296   23.764198   55.201504
H    1.627981    5.750001   73.087616
H    5.091402    3.463147   69.340996
H   45.849518   67.859032   47.444565
H   98.896591   11.255834   16.393349
H   33.451256   23.479481   80.185692
H   66.508507   78.662613   11.581827
H   70.030312   67.915695    3.555841
H   11.882627   67.214882   91.243164
H   85.881149   76.893539   52.051495
H   88.294662   45.773602   96.135902
H    5.175091   21.674034   27.499052
H   70.153091   71.319092   78.419632
H   34.889336   86.362099   74.502090
H   78.320015   86.402328   55.763798
H   61.037697   72.509209   88.153381
H   17.247410   56.611298   84.789040
H   42.217426   37.495346   28.787033
H   86.503998   99.313904   96.393860
H   88.241951   41.261921   19.975740
H   73.102043   37.835468   90.275650
H   78.117302   20.892769   61.992264
H   52.489834   67.624290    5.115543
H   34.966076   29.035589   70.595055
H   70.764656   34.575977   89.632576
H   83.260269   57.712227   65.334068
H   37.069550   95.999527   65.430649
H   25.225103   86.293549   47.480778
H   25.788521   14.968171   44.113976
H   93.830727   64.014061   74.400047
H   38.316902   45.497124   22.594040
H    2.864223   45.937332   89.621231
H   97.868843   34.457954   31.056662
H   59.746666   89.018372   28.711723
H   89.517441   35.101692   75.446297
H   96.160080   43.947498   54.751625
H   87.942284   21.659695   69.652878
H   55.459591   80.505951   56.402618
H   98.846939   21.020893   17.715647
H   70.537331    4.426474   61.645157
H   45.093346   72.068130   64.277283
H   26.582581   41.067108   34.349854
H   50.710869   37.774429   66.301437
H   25.829264    5.556105   49.416885
H    1.497735   64.650551    4.865028
H   39.782917   13.143524   76.488289
