100
TIME:    6.204, STEP:  6204
H   97.771561   53.083733   93.466080
H   29.135170   41.050060   69.288734
H   86.405640   20.244434   50.519016
H   82.517929   77.045197    0.099622
H   39.602386   70.035385   97.490204
H   31.813030   94.486839   93.149071
H   27.819027   80.261757   75.613960
H   32.264130   25.326962   38.563396
H    1.121725   89.804001    9.566670
H    5.306734    5.464011   50.629429
H   23.174057   15.873684   42.148727
H   19.050789   34.664921   51.321312
H   48.176743   86.421928    8.560966
H   47.895576   85.953407   29.367229
H   55.959785   15.860962   52.551418
H   52.074768   69.104469   18.054749
H   25.218452   92.317635   38.162941
H   33.736683   92.952576   84.462440
H   41.895473   38.619301   90.213379
H   25.371040   74.062050   38.729759
H   96.122574   38.589787   88.856041
H   57.163864   52.319885   90.950394
H    2.910144   44.165489   54.847000
H   42.617039   11.046114   46.310757
H    7.694198   94.150986   82.357826
H   18.264990   43.254227    7.021441
H   27.100681   84.584427   23.063536
H    9.066689   46.021446   71.845932
H   46.071098   11.967598   63.905670
H   38.881397   37.290947   76.588943
H   60.223824   78.379845   18.538200
H   57.481571   81.101166   24.928673
H    7.358007   14.568270   56.702271
H   40.236061    5.163183   10.386992
H   26.555847   89.940224    2.506263
H   11.940910   71.352577   99.920784
H   74.842781   77.331177   97.316383
H    7.570892   45.418346   60.239368
H   83.199707   46.241325   43.098335
H   78.845551   31.385330   26.151869
H   11.252426   69.055244   88.509254
H   77.374603   65.932129   96.685356
H   64.678925    0.703746   49.594986
H   83.197159   16.776754   87.330040
H   18.505062   87.113998   87.003036
H   98.043236   81.248642    8.365637
H   90.203415   62.232681   85.017479
H   56.570744   59.269165   52.446278
H   46.377655   18.634979   96.993057
H   55.995831   25.160566   49.748711
H   43.075596   70.687286   18.826851
H    6.635660   88.054688   66.782143
H   37.562153   57.981628   42.550426
H   33.021278    5.976460    5.582377
H   46.823509    2.293316   53.117344
H    1.322834    6.007717   81.427994
H   89.558800   10.532926   46.039528
H   64.092926   90.996010   53.754990
H   79.572784    0.902793   35.201256
H   49.617981    4.647317   87.154076
H   51.053944   90.057266   30.683308
H   78.725838   70.196121   14.641698
H   95.249718   83.933022    8.043549
H   69.058334   75.558929   58.703983
H   78.571075   65.342148   73.320427
H   20.224968   33.853752   13.012643
H   89.809616   62.848125   66.591324
H   51.813087   72.350563   62.789677
H   66.110390    4.006447   71.129639
H   56.074966   60.186852   88.669281
H   25.027962   73.280838   87.727425
H   62.417889   45.626373   10.849238
H    2.478322   11.432037    2.675127
H   93.636467   56.766949   34.532310
H   61.289120   37.485928   71.703262
H   72.326515    5.190498   78.478394
H   30.238785   88.828514    0.770365
H   23.455532   45.056343   57.064812
H   59.015644   35.295620   86.899803
H   95.275497   71.058327   86.441093
H   32.275047   93.464890   50.787327
H    6.840309   84.704590   67.976433
H   10.290971   10.871348   20.780731
H   76.974266   43.049095   96.778130
H   50.246147   60.822708   46.344116
H    8.503391   36.937126   72.607758
H   81.505852   52.271446   19.374151
H   55.806389    8.622969   31.251968
H   84.433212   48.743126   77.450081
H   17.821486   54.028103   45.994415
H   77.915886    8.430420   64.478928
H   37.332073   62.079361   51.735222
H   83.141907   13.669324   98.769424
H   46.859638   89.562691   45.125153
H   49.328957   94.012558   58.647251
H    6.346583   50.742096   47.004349
H   70.158043   23.714846   80.391479
H   26.302172   93.432968   54.334755
H   13.168693   63.593304   25.386993
H   24.565744   19.430584    0.088838
