100
TIME:    8.059, STEP:  8059
H   72.324944   82.972527   91.767776
H   77.906845   41.569965   86.251114
H   18.297754   53.700470   28.739338
H   82.829285    0.618645   98.420723
H   22.983480   18.721638   47.192123
H    3.042537   92.477180   76.856300
H   30.598389    5.519099   20.677464
H   86.464783   85.807854   68.244026
H   55.522270   11.452826   92.801544
H   54.639961   32.100300   23.262310
H   50.626480   90.514099   63.464874
H   48.252922   27.646420   19.280552
H   29.854149   74.184723   24.226030
H   56.047554   80.235786   70.534401
H   78.490608   50.163223   63.342178
H   77.488052    6.859358   64.073517
H   76.050148   15.011702    7.030919
H   73.402863    2.688178   20.161705
H   70.784103   16.437321   87.941574
H   75.391495   34.671955   65.026802
H   86.044243   53.919086   38.508518
H   35.004520   54.782425   32.979965
H   78.142937   29.080267    1.771943
H   70.261398   33.237274    8.541945
H   41.347603   47.041824   96.057472
H    9.608532   88.524155   32.494354
H   67.143341    7.472958   59.874256
H   52.546104   32.606571   33.159561
H   86.405800   80.267654   76.219048
H   10.011448   91.378922   24.055740
H   33.227367   44.721573   71.776649
H   74.607506   29.850147   53.202065
H   38.021984   78.847771   23.815321
H   18.613720   35.163368   32.237534
H   80.389366   49.490623   15.367411
H   73.192871   16.644495   94.089943
H   52.761448    9.396692   43.482937
H   30.899525   11.466908   91.143028
H    4.897676    5.826292   63.335335
H    4.126091   57.727470   72.100769
H   84.476288   32.706223   32.211025
H   21.045448   73.206528   91.386772
H   80.642975   11.831381   83.583260
H   64.748077   47.912468   68.700836
H   57.596443   13.926714   45.740631
H   74.097160   16.626957   15.901857
H    4.698464   63.114021    2.823173
H   56.679501   78.375076   67.222801
H    0.605399   65.002632   22.996666
H   94.940674   53.396572   20.046795
H   42.948223   91.598747   38.380875
H   96.795502   15.923098   45.013794
H   76.038445   68.737549   34.817879
H   90.065094   75.716248   87.438309
H   99.124855   64.858139   68.893021
H    3.633234    4.056437   18.279419
H    7.158402   57.007439   22.465538
H   25.965811   15.814157    5.972947
H   25.870457   79.290199   92.796616
H   27.208153   47.230328   34.393456
H   68.068497    3.791529   86.052986
H   12.888283   52.930038   30.709721
H   21.185661   57.351471   80.840637
H   96.436516   85.663834    8.335679
H   52.199669   17.185045   46.068787
H    6.271648   41.636497   22.695332
H   40.980194   26.983475   56.150921
H   23.675667   78.439934   51.469406
H   58.563164   70.717995   54.787422
H   93.698845   53.425755   84.750595
H   66.122902   47.067986   65.479652
H    9.628730   84.009178   46.767162
H   81.529022   19.681341   55.119114
H   52.796162   39.365582   24.314856
H   50.680954   40.181652   12.340368
H   16.175219   24.078720   53.660088
H   98.711632   28.273529   33.668648
H   10.605670   23.764904   59.509533
H   47.970528   29.846897    7.594730
H    4.304827   70.007469   26.631050
H   68.583397   12.656411   61.658340
H   46.036934   96.734375   12.788578
H   27.623846   41.893101   97.440857
H    4.596169    1.784955   27.352238
H   59.924011   44.781300   66.523354
H   65.816879    5.073543    1.424499
H    5.397212   17.397530    7.827565
H   85.639915   60.185913   12.018684
H   22.931931   45.459663   62.278572
H   53.815556   77.707657   12.307545
H   53.830189    8.594880    3.653268
H   74.583290    1.593603   87.083321
H    2.051036   69.329857   42.219421
H   26.137358    2.103095   70.204781
H   17.256077   27.853439    1.274548
H   59.561951   77.491089   51.191154
H   22.916750   30.168129   73.708138
H   22.721582   85.218727   17.096624
H   24.800682   71.602913   70.012444
H   39.786358   71.824661   21.390835
