100
TIME:    5.553, STEP:  5553
H   41.795326   12.783547   94.062088
H   47.114357    5.771657   28.239529
H   75.210617   73.409164   58.162823
H   82.408661    3.865917   35.783920
H   45.433334   17.854860   15.140862
H   41.910404   95.192116   28.678247
H   61.935841   36.303013   24.704912
H   83.431442   69.006119   98.335213
H   17.124596   52.395111   50.546043
H   23.091219   96.116219   25.138922
H   83.728500   89.679718    4.856792
H   43.899368    2.033998   97.660957
H   89.718521   25.789913   73.247734
H   80.129692   87.959969   79.826088
H   48.044151   74.011215   83.845032
H   78.249466   26.043472   72.093475
H   77.567848   49.257732   78.899841
H   19.814924   24.628468    7.030531
H   31.758305   11.307223   55.914272
H   42.908585   87.889442   94.406715
H   34.753822    3.397952    6.526752
H   94.751862   51.455673   46.389023
H   11.602849   49.460030   73.472260
H    3.103847    3.258272   94.658783
H   30.976215   45.779648   77.550026
H   21.232615   62.500328   68.237808
H   83.237778   11.644663   10.145618
H   63.994701   15.634956   50.326874
H   31.915901   52.903446   94.679565
H   13.920280   53.403038   24.835899
H   34.600433   20.004063   70.043251
H   16.376865   99.090683   85.195045
H   61.504238   62.198357   98.055046
H   12.728686   64.823418   37.811348
H   42.739380   39.155960   62.865639
H   55.350269   20.363499    1.968086
H   12.404305    1.171614   46.019939
H   34.476543   57.333546   14.301983
H   10.677278   60.426323    6.185615
H   40.162891   92.329811   74.933617
H   55.743286   46.718712   73.171974
H   32.548485   61.081032   63.679440
H   59.072079   96.799637    2.573627
H   24.766163    5.849813   23.679171
H   74.973442   12.800061   31.296091
H    6.444682   68.831802    5.720850
H   85.117477   26.829426   78.769325
H   56.535976   52.564072   12.166053
H   27.350090   72.549683   22.962070
H   42.340885   15.251562   95.280807
H   43.120960   33.537567   11.964576
H   74.998070   48.462879    9.516953
H   24.057598   54.206909   80.360039
H   48.095322   16.599136   76.855247
H   98.656364   45.243603   47.579433
H    0.511967    6.692506    3.589584
H   48.287117   29.317482   84.123894
H   12.567939   52.475487   70.522690
H   28.230131   73.396889   85.176552
H   92.578583   54.611065    5.670052
H    9.987822   20.332161   81.440086
H    1.830920   76.255539   44.099350
H   51.054249   28.356653   52.684570
H   24.353733   72.012680   76.377121
H   52.731949   17.334866   12.695655
H   60.216393   66.217003   74.520027
H   42.041260   40.343845   35.161819
H   96.781914   35.119907   31.668112
H   33.663029   50.783165   11.957322
H   42.888283   27.441509   90.040100
H   45.700356   17.574631   95.535133
H   16.097172   67.231674   63.187767
H   44.925705   43.631386   19.368301
H    7.967793   97.970116   73.213249
H   29.904150   36.557148   22.353291
H   56.937286   63.469475   22.283373
H   71.132103   45.249271   89.255821
H   92.870361   87.623482   21.110613
H   27.799709   37.207813   79.638435
H   27.198982    6.520597   42.525269
H   19.535372   86.729996   11.879071
H   57.978760   80.482864   22.432470
H   69.115608   99.985168   58.784161
H   32.187767   87.341110   56.235455
H   81.943855    1.540553    9.451294
H   23.488033   13.024264   27.400528
H   38.027046   99.604439   88.331924
H   45.336510   60.717945   38.001762
H   70.923691   84.990364   82.774422
H   75.379395   80.810593   22.724268
H   51.274315   73.276566   50.730999
H   89.164665   13.118165   39.333282
H   41.411392   94.136696   48.426594
H   83.943703   50.067211    1.229466
H   60.583580   52.326420   43.687443
H   52.576630   76.449921   80.629150
H   21.831293   86.356102   17.831268
H   27.247969   63.518158   67.172112
H   44.180878   60.787098   79.915337
H   84.129135   36.135586   62.803555
