100
TIME:    9.376, STEP:  9376
H   83.261627   62.197701   90.562027
H   41.533401   12.934896   69.292961
H   40.935703   48.450615   13.280182
H   83.050339   46.359856   26.231665
H   11.182207   24.284729   11.484411
H   82.624023   91.050377    7.282218
H   61.572247   94.449730   23.668591
H   82.951187   99.745834   47.321068
H   23.147896   84.827713    9.901049
H   18.666571   51.010471   74.829048
H   28.122345   43.504669   36.603630
H   97.983620   93.661201   25.534809
H   45.873306   94.472160   93.346664
H   90.838455   76.176430   70.758675
H   94.486885   32.522285    0.010027
H   24.534843   91.669601   54.751038
H   70.144844    2.121283   26.922621
H    1.567042   38.602654   74.506912
H   91.301941   71.689392   57.324268
H   39.909092    6.704069   54.694267
H    7.891317   22.807039    2.763136
H   61.266598   56.530762   20.825241
H   60.559090   18.374216   64.092148
H   47.892628   48.992401   10.730484
H   94.245590   42.597229    5.781059
H    3.396896   49.699020    8.558252
H   53.576645   52.728962   86.000412
H   41.421906   94.079697   76.694237
H   15.043401   99.756401   13.963638
H   60.510368   58.783493   28.753307
H   85.060463   62.818844   67.579819
H   57.763660   93.464020   31.280769
H   30.790024   82.489868   42.461082
H   74.260269   14.468142   76.755714
H   47.613075   49.775215   95.495544
H   87.677383   19.801218   89.950203
H   79.079010   61.165779   47.257404
H   76.463493   87.368324   84.079414
H   49.309223   77.130455   35.707993
H   80.078659   34.433449   75.719498
H   94.468765   77.894775   63.238979
H   10.055712   78.371155   58.620914
H   91.977020   19.732738   78.710564
H   80.659584   70.025185   97.469917
H   43.357162   61.975979   58.443432
H   57.100174   41.743664   21.252371
H   14.994901   34.738201   15.470818
H   56.759884   91.939758   48.710911
H   39.099182   55.929066   70.463257
H   22.585768   73.446892   27.962589
H   43.488514   64.499840   51.298843
H   60.802746   93.715652   58.560066
H    3.349539   76.373962   58.330429
H   59.561096   54.229240   45.552681
H   94.263405   80.272980   80.086395
H    5.273556    2.671082   73.445618
H   90.649979   19.006233   47.723122
H   27.899321   91.439308   72.050682
H   29.744110   34.939133   91.689751
H   40.299137   48.459393   96.934853
H   51.148411   42.543438   83.372826
H   66.145348   40.671585   71.122368
H   10.596877   67.481590   90.529999
H   86.873169   92.838043   72.583176
H    4.471640   11.997135   68.714668
H   25.366631   76.164909    0.566672
H   35.314896   72.513000   19.735554
H   32.701431   53.761116   14.429626
H   24.200174   76.086777   72.187378
H   20.446671   19.577234   81.957275
H   24.294876   57.456120   49.684334
H    1.176931   40.280663   43.302540
H   95.659210   54.533802   21.348080
H   23.807934   56.011990   46.063148
H   14.122365   42.120899   12.196146
H   47.313698    8.485999   65.042130
H   18.323589   14.283215   57.030045
H   72.473564   37.654289   32.251480
H   11.127711   25.978451   22.293390
H   39.717064   98.263557   13.170374
H   94.366341   26.281382   40.374168
H   44.863144    5.280529    2.608141
H   10.925932   63.918125   22.865696
H   95.203178   14.483704    7.065241
H   95.798233   62.393616   38.855530
H   35.502926   53.451447   92.880981
H   93.356682   21.640587   70.627022
H    6.820420   54.799477   98.364716
H   50.263920   72.131676   51.507210
H   37.374454   23.521805   59.383919
H    7.727511   79.706436   31.466087
H   72.027954    0.644663   12.178437
H   86.473267    8.840445   44.065056
H   52.787819   81.955307   59.975079
H   94.484116    9.884045   31.535059
H   68.340744   25.483725   83.166199
H   18.379646    5.748214   97.965378
H   20.179461   50.384060   90.653770
H   62.062004   77.290031   59.700253
H   21.591331   38.031208   94.519714
