100
TIME:    0.729, STEP:   729
H   68.023109   55.168282   98.478592
H   80.991753   44.270763   23.985258
H   92.289673   26.350883   14.780212
H   81.598969    2.614397    0.203505
H   88.641464   31.190086   45.938606
H   16.711918    0.420227   50.941341
H   14.764053   10.562439   47.461521
H   62.588333   51.669010   41.260002
H   35.707787   16.203156   54.200035
H   54.918144   26.852085   36.237320
H   32.445221   95.575592   69.527718
H   28.016315   60.231682   41.037605
H   96.891190   17.602081   52.671730
H   18.985844    2.829593   12.716702
H   89.368706    4.907310   15.729586
H   72.212540   47.974010   72.526840
H   65.456032   30.206924   39.728508
H   16.722466   59.249405   74.273239
H   56.615990    8.934382    1.770532
H   72.916023   90.247589   65.921883
H   21.016647   83.643158   37.457466
H   32.249195   45.062134   57.183414
H   76.010826   88.693306   11.491982
H   51.309540   45.424961   52.933708
H    3.511344   28.359325   41.941383
H   43.316326    5.888306   20.844316
H   99.215897   12.172812   14.432341
H   71.029320   90.466446   90.870346
H   27.022614   15.232717   22.711811
H   28.945856   72.797073   41.341640
H   44.778538   87.415916   51.724815
H   11.786602   32.370529   31.776878
H   21.707233   15.145220   63.471031
H    8.903955    6.914222   41.039070
H   62.651390    3.813275   69.118393
H   35.939148   41.752209   18.135946
H   49.719204   77.838234   65.907661
H   33.859627   45.611423   73.884178
H   17.946732   64.945992   72.256256
H   94.529961   43.936893   95.390068
H   85.422516   81.194511   59.518002
H   66.102806   44.576462   37.049686
H   17.520140   67.871536   54.128799
H   32.807220   24.988474   52.010384
H   93.420265    3.129564   18.490026
H   68.640938   76.908501   86.177071
H   43.777637   65.067902   33.852486
H   56.278347    2.889137   13.684279
H   86.339775   72.072739   15.393474
H   41.179249   41.845242   32.677505
H   43.489002   99.262886   61.103336
H   40.560341   96.092941   26.204269
H   24.001429   26.235718   60.532143
H   59.807926   95.308678   63.985249
H   82.724243   22.412508    6.592136
H   94.478378   11.765800   67.809921
H   42.466599   68.511955   25.321526
H   71.775818    8.042122   94.777298
H   47.770943   69.570511   55.518536
H   10.912946   83.821182   42.875084
H    5.686199   44.668564   57.556114
H   73.037506   21.159927   62.371872
H   23.680202   57.441338   83.545753
H   93.098213   45.760063    7.346510
H   61.259369    2.619567   63.452553
H   56.561684    6.032345   89.290031
H   29.079992   73.564514    2.257767
H   30.008904   59.229538    1.053016
H   93.234734   97.405045   14.510059
H   45.153641   84.810204    0.197787
H   98.882317   45.801739   53.404209
H   13.858000   27.331566    9.995142
H   59.459747   82.246925   43.056438
H   14.145249    3.246480   59.881966
H   97.320602   29.680979   56.661182
H   42.893742   54.295624   46.876743
H   33.143154   63.360710    3.933525
H   66.230072    3.052745   54.701290
H   96.494301   51.367039   25.817066
H   63.774002   69.252800   58.117157
H   25.147831   36.823498   23.559052
H   96.020256   48.988480   25.819611
H   63.920979   19.424841   99.333618
H    0.317439   74.543068   96.844002
H   16.833071    3.283609   77.084129
H   34.514042   35.831638   92.407112
H   15.842993   50.348686   58.304638
H   67.690628   46.928398   88.162590
H   70.811470   53.582375   22.236042
H    1.882812   79.288239   50.273800
H   53.856236   12.796103   48.856884
H   32.225574   50.333626   47.413086
H   32.057320   49.473228   75.312157
H   17.687975   57.453102   75.970589
H   43.988544   84.430206   32.837181
H   54.134003   66.943657   29.795311
H    4.738092    9.516173   95.263351
H    9.541795   22.444672   44.371910
H   73.984215   39.992725   83.986610
H   84.514816   59.980015   27.473070
