100
TIME:    7.878, STEP:  7878
H   84.565422   99.571190   91.933487
H   82.905777   31.761288   74.839188
H   15.186541   40.678391   30.863884
H   82.798904    8.076305    8.342022
H   24.605371    4.213734   52.099915
H    5.849603   92.673271   58.931564
H   40.084034   93.297363    6.523029
H    0.691028   70.148216   84.862022
H   59.971596   28.855785    4.194427
H   59.583656   29.501406   16.174736
H   67.462662   83.231125   80.900330
H   55.161667   18.573772   32.163857
H   41.395882   85.140945   42.212818
H   65.009727   80.793678   56.760372
H   76.292183   66.331039   72.047394
H   84.765503   22.690430   79.097931
H   90.605049    3.040229   90.553772
H   69.533524   11.495447   26.435917
H   67.964264    8.843640   78.404938
H   80.268906   38.515057   52.703468
H   96.785042   71.938110   43.420452
H   17.651873   54.542145   48.393799
H   80.559547   30.551638    6.950740
H   87.078247   31.071993   21.984707
H   47.821358   61.396492   94.720741
H   10.461941   93.860031   49.528008
H   82.750504   14.997235   56.282482
H   67.818047   24.158102   27.176588
H   82.470177   63.845753   84.775230
H    3.071299   95.858627    9.667240
H   26.103769   28.491467   86.096794
H   63.179012   34.850460   69.958153
H   25.272310   92.090797    7.509411
H   10.965720   51.750984   39.862976
H   84.893929   63.194878    4.354859
H   57.458668    2.467265   94.658882
H   35.401897   16.025801   29.220793
H   38.380074   14.779390   78.369514
H   12.538033    9.769510   80.875786
H   21.174244   74.671875   57.860123
H   96.846573   26.496222   27.946745
H   36.299095   72.496735   82.145653
H   79.085297   10.745632   70.508705
H   76.306076   44.874290   51.003971
H   73.296944   21.067554   30.252148
H   76.433678   13.175345   15.166517
H    3.283538   53.270821    1.084854
H   56.668453   76.510834   56.023540
H   95.313850   79.993904   30.216808
H   91.140381   50.641636   32.702278
H   42.960651    9.073267   36.472443
H   87.999039   32.718571   56.895233
H   72.285103   67.688049   45.329445
H   94.257568   78.668655   79.451065
H   13.536697   48.995583   67.354675
H    3.407799    4.246832   24.441086
H   95.683624   62.230080    5.250768
H   39.443283   32.907845   10.635280
H   11.595192   71.642662    6.691772
H   39.151733   33.317554   39.541527
H   56.651043   12.208584    0.165975
H   19.312325   54.614761   38.899849
H    8.897540   69.702423   93.252350
H   84.008232   84.677856   13.250030
H   45.014740   31.641211   29.213160
H   17.390129   50.634575   11.993070
H   55.501953   20.725834   47.412457
H   36.178520   68.088554   42.816559
H   49.541611   83.723503   66.139709
H   90.022835   44.335155   85.134491
H   71.870293   59.383209   67.650459
H   24.533546   90.018944   33.500660
H   93.330368   28.634539   59.760387
H   56.780117   50.820316   35.068970
H   41.961823   39.915134   98.617065
H   11.896077   12.478298   65.838631
H   82.273155   43.940071   30.458338
H    2.102878   35.599392   49.513050
H   39.291443   30.378551    5.574789
H   13.180966   79.867241   42.224403
H   65.039955   10.783883   50.840210
H   32.455582   95.560593   27.931061
H   16.175325   38.866123   80.204208
H   92.143288   86.296509   43.883236
H   68.737045   56.103466   84.069328
H   69.981735   98.425262   88.855331
H   93.308586   30.557701   99.196693
H   82.728935   74.669373   13.895355
H   19.175137   55.537621   63.758919
H   69.818542   85.153580    5.837530
H   46.422932   98.821663   99.830734
H   61.191120   87.980545   83.633781
H   90.448578   63.900051   28.222414
H    8.644548   91.122032   58.000210
H   20.385933   44.066826   97.115326
H   44.612106   84.638733   60.539986
H   37.283409   19.781536   84.117516
H   23.070955   76.262077   20.730516
H   33.423149   70.821312   85.172188
H   28.544283   76.470078   38.827717
