100
TIME:    3.726, STEP:  3726
H   65.348053   80.328186   95.734756
H   97.624046    6.761806   13.034679
H   43.801292   41.966972   79.604652
H   82.102005   79.138603   35.928158
H   61.797607   71.412834   64.677414
H   70.245125   97.171440   47.744621
H   57.689297   12.934271   81.830986
H   27.030045   10.948874   66.085960
H   62.035744   28.053787   65.549934
H   73.019127   69.883202   53.597702
H   53.671585   16.165943   80.841957
H   13.628479   10.455681   27.707895
H    6.252132   36.279327   54.794312
H   70.591301   93.591286   40.790752
H   25.823601   37.205673   71.668251
H   51.710388   85.839409   23.750940
H   24.484505   28.416782   12.580832
H   80.762169   13.505403   70.369812
H    3.302320   34.663918   59.660816
H   92.134819   26.690538   70.016045
H   43.170593   85.282227   56.111015
H   19.595596   49.030304    1.974971
H   35.996559   64.318901   25.745518
H   72.855721   81.369202   30.348110
H   96.321686   90.668533   64.057167
H   29.572264   16.587637   39.932724
H   40.781742   87.591751   73.901161
H   18.153078   30.356781   89.932854
H   92.188705   87.144058   81.042580
H   43.864090   98.620842   79.595093
H   62.698971   56.172459   14.589684
H    1.019243   49.564529   54.329567
H   32.811543   95.870872   33.464462
H   35.534454   32.256996   14.780781
H   88.152328   77.263023   51.614723
H   96.521690   77.182770    7.825340
H   37.171005   68.081528    2.059642
H    9.990674   90.761818   85.374977
H   87.796692    0.235788   83.235374
H   12.246235   63.368584   31.187834
H   80.606308   84.031723   30.128645
H   96.749466   79.083801   77.852097
H   43.335056   85.843658   70.605644
H   41.428284   75.216827   45.042252
H   33.453014   84.882324   74.954529
H   30.017132   33.984547   98.297035
H   70.844040   27.470837   61.231987
H   56.438404   33.746552   99.121727
H   73.943100   23.862457   95.841644
H    4.022838   87.449745   23.063335
H   43.260349    9.922070   92.703171
H   86.209763   17.993954   29.456944
H   86.164009   43.613342   86.469307
H   90.408592   46.414452   96.235382
H   44.123917   85.123962   32.037556
H   98.228287    8.614889   65.784973
H   32.463955   82.034416   10.361099
H   48.610344   25.013054   17.581924
H   84.138466   96.200729   25.435726
H   13.142015   14.180265   57.634285
H   94.739204    5.296857   23.887852
H   66.671593   93.261002   26.764381
H   27.018045   53.027763   77.967461
H   98.896721   62.063019   25.979038
H   80.214531   63.255672   42.555561
H   72.451118   57.042305   66.494003
H   88.624222   77.178772   46.954021
H   22.985634   30.631762   44.326946
H   42.606178   82.059738   26.544094
H    5.875574   35.549393   93.887238
H    3.714296   41.883125   17.452118
H   66.740402   27.866608   29.421631
H   64.049362   34.002850   66.216301
H   48.189083   13.590351   81.768089
H   41.816631   33.950573   83.853798
H   13.740808   46.374817   45.216640
H    5.251209    3.601293   56.945438
H    7.034586    7.086071   20.212313
H   40.187454   42.574291   59.256516
H   16.795418    6.027267   99.923088
H   83.789597   67.828842    2.683567
H   20.890305   68.561172   75.211548
H   53.543056   69.451233   84.783051
H    6.493490   31.001244   23.104614
H   70.903946   15.820360   86.558578
H   65.541199   45.917274    0.527812
H   16.005850   32.442375    1.213290
H   15.932627    6.981722   56.993736
H   33.009872   86.714806   97.716927
H   36.910015   55.979546   57.411041
H   76.505859   74.623894   12.148110
H   53.981667   75.719292    4.523352
H   24.297646   39.315948    7.141814
H    7.359260   39.242172   78.042992
H   92.169136   15.976803    1.707305
H    1.673892   48.595222   74.996117
H   66.850006   81.508202   22.903715
H   20.543356   47.962341   96.415932
H   31.215233   52.911617   32.945435
H   70.646065   83.017769   38.802490
