100
TIME:    3.808, STEP:  3808
H   59.802643   72.808350   95.659683
H   95.343071   11.207727   18.207136
H   45.210793   47.866478   78.642464
H   82.115768   75.760307   31.433187
H   61.063141   77.985497   62.453995
H   68.973885   97.082603   55.865669
H   53.391979   18.471462   88.243492
H   20.585007   18.042782   58.556911
H   60.020027   20.169846   60.388210
H   70.778191   71.060600   56.808960
H   46.044144   19.465412   72.943001
H   10.498550   14.565784   21.871264
H    1.036188   31.318237   46.644485
H   66.531090   93.338539   47.031216
H   26.821136   29.881119   67.726906
H   48.413422   78.667412   16.943987
H   17.890572   33.840199   20.045614
H   82.513878    9.517606   67.527039
H    4.579426   38.104149   63.980656
H   89.925163   24.949152   75.598991
H   38.304596   77.119263   53.885719
H   27.457016   49.139160   94.991928
H   34.901741   63.652000   23.399166
H   65.237038   82.352661   24.257793
H   93.388824   84.165939   64.662758
H   29.195959   14.144435   32.247101
H   33.710468   84.183426   75.527748
H   11.234248   34.184265   92.642998
H   93.971695   94.583817   77.166298
H   47.008408   96.591362   86.113953
H   65.926125   63.525257    8.102104
H    6.196693   47.299194   46.738411
H   38.587803   89.871269   40.851669
H   38.999084   24.742165   11.326473
H   86.114090   71.064476   56.607719
H    3.652252   83.624054    7.542330
H   45.035553   65.078598    8.520801
H    6.601586   89.261604   91.161873
H   84.335815   98.449089   75.288872
H    4.522762   55.691719   37.639713
H   75.002090   86.845718   32.060528
H   89.379776   82.763641   81.704605
H   44.041370   86.335388   76.528923
H   36.191925   76.590668   53.059448
H   26.340200   81.646667   81.971375
H   28.959225   35.548573   98.629860
H   71.484665   31.930500   62.019630
H   56.442783   34.591125    4.195394
H   76.340439   17.071457   92.570953
H    5.742640   88.697212   17.328365
H   43.254093    2.005293   93.567764
H   90.194901   10.384968   24.073566
H   87.864418   44.088806   81.707161
H   88.509239   45.076271   99.853912
H   37.595047   92.310974   32.735111
H   98.330887    8.528555   62.993500
H   37.662151   79.668358   18.160070
H   42.504387   17.268936   15.469591
H   90.606026   99.665359   19.140522
H    7.730954   20.483290   55.302010
H   99.911751    1.483605   17.494740
H   63.761253   92.497757   23.053886
H   32.585072   47.432304   72.344475
H    4.527503   62.509079   23.752491
H   83.468956   56.706158   50.191761
H   67.413704   52.965828   71.342484
H   82.045303   80.014038   50.912884
H   17.321358   35.321426   48.247021
H   46.693291   76.167740   21.400951
H    7.536882   39.674042   93.714569
H    1.110350   36.303932   16.468346
H   59.979179   25.145203   35.425480
H   58.702896   29.947018   64.114250
H   46.383572    8.401226   76.895836
H   45.769863   34.067562   90.069862
H   15.679418   51.630569   39.699383
H   12.696314   96.494186   58.395603
H   10.887095    1.724216   24.741106
H   44.119415   42.333431   60.171783
H   12.773869    1.561329   92.858696
H   85.393661   68.677170    7.584432
H   27.043182   69.096695   68.354858
H   58.731243   70.820068   92.593170
H   12.134932   38.018135   15.615424
H   66.911301   10.691137   78.609573
H   63.654240   48.929588    6.222251
H   21.482443   26.480309    5.123461
H   17.252352    0.416740   56.141029
H   34.711533   82.149101   97.046272
H   29.659918   52.605629   60.342026
H   79.861633   79.051964   13.879800
H   60.049461   81.885307    6.085892
H   29.553711   41.776474   13.483011
H   15.284967   44.216400   83.572136
H   90.751503    8.631512    3.591487
H    8.446822   45.357063   70.760735
H   60.341156   86.214043   18.187551
H   20.844275   48.660522   95.103401
H   27.308922   53.265087   26.076859
H   75.739784   80.913216   30.902952
