100
TIME:    8.156, STEP:  8156
H   65.765129   74.077110   91.678970
H   75.227859   46.826550   92.366898
H   19.965090   60.679153   27.600769
H   82.845566   96.622307   93.104195
H   22.114290   26.496616   44.561981
H    1.538190   92.372093   86.462166
H   25.514606   12.069293   28.262989
H   78.840775   94.200035   59.337860
H   53.137825    2.126466   86.696121
H   51.990578   33.493076   27.060623
H   41.603775   94.417130   54.121727
H   44.550446   32.508556   12.376244
H   23.668800   68.313156   14.586493
H   51.244621   79.936806   77.915672
H   79.668770   41.498703   58.677635
H   73.587982   98.375267   56.021759
H   68.250008   21.427235   15.861211
H   75.476486   97.968193   16.799282
H   72.295288   20.506863   93.052368
H   72.777634   32.612392   71.631020
H   80.288124   44.262157   35.876156
H   44.304005   54.911194   24.719513
H   76.847847   28.291742   98.996628
H   61.248825   34.397675    1.337815
H   37.878242   39.348991   96.773842
H    9.151180   85.664597   23.366173
H   58.778816    3.440689   61.799129
H   44.361877   37.134205   36.366203
H   88.514946   89.068344   71.633690
H   13.730761   88.978195   31.766705
H   37.045292   53.419395   64.102318
H   80.732170   27.170422   44.222282
H   44.854877   71.750679   32.553848
H   22.712494   26.273872   28.151320
H   77.975319   42.146355   21.269300
H   81.625015   24.242231   93.785042
H   62.064632    5.844076   51.126186
H   26.890297    9.691710   97.988503
H    0.803095    3.713076   53.935204
H   94.989609   48.646301   79.732178
H   77.846909   36.034233   34.496304
H   12.870770   73.586914   96.339195
H   81.477753   12.413246   90.590065
H   58.554676   49.541321   78.185333
H   49.182724   10.099827   54.041527
H   72.844994   18.476715   16.295935
H    5.456739   68.389107    3.754759
H   56.685421   79.374146   73.224617
H    3.440617   56.969284   19.127308
H   96.977295   54.872974   13.264520
H   42.941563   82.234138   39.403625
H    1.509717    6.922213   38.646393
H   78.049904   69.299988   29.184423
H   87.818298   74.134018   91.718765
H   91.401680   73.358368   69.717438
H    3.754047    3.954403   14.977310
H   13.307673   54.208565   31.691017
H   18.743280    6.653447    3.474339
H   33.520809   83.388603   85.350220
H   20.807449   54.686344   31.634544
H   74.187241   99.280640   78.489662
H    9.445564   52.027176   26.320847
H   27.771008   50.732452   74.189056
H    3.097191   86.192230    5.701941
H   56.050156    9.437614   55.101852
H    0.313097   36.814323   28.430729
H   33.197815   30.337017   60.833965
H   16.975243   83.987358   56.106567
H   63.397919   63.748192   48.703461
H   95.668861   58.297512   84.544861
H   63.042576   40.467468   64.316292
H    1.641158   80.788475   53.876835
H   75.204544   14.883219   52.631802
H   50.661114   33.226856   18.551706
H   55.353638   40.324482   19.694906
H   18.468637   30.295521   47.133575
H    7.521436   19.877647   35.389267
H   15.162351   17.422665   64.866882
H   52.621750   29.561977    8.677240
H   99.547997   64.723503   18.274391
H   70.482368   13.659921   67.455902
H   53.315338   97.363419    4.673584
H   33.759346   43.515293    6.678645
H   11.269582   10.085556   18.493084
H   55.201004   38.713619   57.120262
H   63.584743    8.636519    8.160613
H   11.875657   10.344692   12.452888
H   87.199944   52.423515   11.012955
H   24.945240   40.058769   61.485237
H   45.239101   73.717300   15.774870
H   57.799824   13.832408    5.701822
H   81.760307    8.888777   88.931969
H    8.268850   72.239738   49.720581
H   35.511818    7.987905   76.745354
H   15.578751   19.164497    3.503398
H   67.573746   73.660583   46.181007
H   15.217607   35.734673   68.129631
H   22.534349   90.018700   15.149179
H   20.179802   72.021782   61.887966
H   45.811115   69.335129   12.046287
