100
TIME:    5.089, STEP:  5089
H   73.174232   55.334084   94.486893
H   59.929298   80.629593   98.982849
H   67.231369   40.026596   63.610943
H   82.330780   22.983898   61.219101
H   49.589340   80.663300   27.720451
H   49.107304   95.694801   82.727135
H   86.255608    4.970395   88.419434
H   19.900932   28.865177   40.939114
H   28.530602   97.006683   79.752998
H   35.770393   89.453865    6.967926
H   26.888641   71.009552   49.550861
H   61.610184   78.776009   30.687960
H   19.327377   53.848656   19.353271
H    3.104409   89.390144   44.515785
H   42.401329   15.457574    6.147920
H   96.905472   66.626480   10.609430
H   14.880138   18.569134   36.660095
H    9.892739   47.203876   23.114698
H   24.531315   91.842209   31.470301
H   55.408463   97.744911   62.815407
H   62.288246   49.591881   19.120441
H   50.267731   50.839706   85.902939
H   17.798546   53.233711   86.747406
H   46.216801   97.707489   29.119335
H   47.571808   82.576569   74.123268
H   23.347788   76.214828   11.871782
H   23.248343   30.932766    0.938523
H    3.147313   93.977036   34.987885
H   21.826790   10.806084   16.612457
H   96.128784   64.886925   87.949806
H   16.338890   78.395630    6.753456
H   87.079872   11.909957   28.149803
H   28.819229   96.147331   56.254265
H   93.123367    7.346273   57.359444
H   54.272827   74.230667   34.612587
H   15.015809   84.020760    3.427370
H   67.899506   18.165535    9.458575
H   53.652935   65.825340   81.557884
H   30.264072   70.536674   51.150192
H   83.866280   35.768028   38.426250
H   87.454956   30.799154   62.240337
H   74.250145   40.254982   41.883419
H   55.075375   94.017166   69.056709
H   54.392750   98.061462   78.311203
H   15.223013   31.105759   91.589622
H   12.432123   59.981709    3.835165
H   81.492477    1.594352   74.315956
H   56.511196   47.785019   83.456429
H   13.788200   10.979404   41.472069
H   32.609318    8.189184   27.732941
H   43.156361   78.333221    7.073126
H   52.448021   91.518112   39.978989
H   14.432376   51.516479    7.307322
H   58.839340   24.171280   56.379662
H   35.601654    4.580118   43.632290
H   99.933701    7.180589   19.385239
H   18.872932   42.705910   39.993767
H   47.117813   96.294090   82.473862
H   91.635750   53.791977   20.797340
H   23.197697   18.945171   18.867317
H   80.718475   41.909657   17.617950
H   18.297548   80.574387   65.095139
H   19.552141   60.018967   84.502441
H   92.491920   69.485092   88.972580
H   34.313126   54.394833   69.485420
H   88.720787   89.283897   47.084724
H   79.268311   24.303078   12.758930
H   28.833870    8.582213    9.486228
H   10.536165   84.123253   41.059860
H   33.489479    4.103423   91.017151
H   60.433998   49.144699    1.100354
H   54.355110   82.630844   29.214157
H   75.178879   66.581856   31.266373
H   18.180805   27.336521    0.783031
H    7.533199   35.895161   87.178436
H   45.966705   33.729607   53.503529
H   29.002825   85.465767   81.050011
H   71.070801   17.962753   95.485344
H    5.550198   38.570728   74.462898
H   49.951050   31.795223   82.499390
H   10.455711   81.929703   84.146812
H   23.159096   77.462601   61.238548
H   39.765762   92.225403   14.593883
H    0.265476   47.636032   98.616150
H    4.536619   30.564911   54.430901
H   34.168331   95.981163   95.178680
H    7.037542   33.341171   66.206680
H   37.870422   97.857407   42.820084
H   61.294785   10.825165   86.569344
H   16.402403   99.898483    6.137891
H   32.285545   48.222401   40.932171
H   54.833363   78.220886   30.493803
H   11.668115   80.217262   12.544758
H   39.099220   21.917734   69.942619
H   68.605309   93.887474   33.024845
H   14.252166   94.773163    4.595381
H   58.661369   59.727932   44.516083
H   25.545210   59.567474   74.599113
H   66.284882   58.786976   18.779579
H   55.307201   48.040737    7.500630
