100
TIME:    1.085, STEP:  1085
H   43.947914   22.521187   98.152664
H   71.088982   63.573833   46.441677
H   98.406250   51.963070   10.600189
H   81.658722   87.947411   80.691277
H   85.452805   59.725060   36.285713
H   11.191517    0.032783   86.196861
H   96.106163   34.602169   75.301186
H   34.607437   82.468094    8.572321
H   26.956627   81.975006   31.789801
H   45.189201   31.962360   50.178879
H   99.330978    9.899798   35.236969
H   14.427845   78.076225   15.697599
H   74.244644   96.063210   17.288992
H    1.359147    1.731984   39.809444
H   93.698112   73.107910   98.616531
H   57.898880   16.834332   42.976059
H   36.834145   53.749771   72.142021
H   24.330162   41.937210   61.931442
H   62.159477   23.870020   20.525049
H   63.283974   82.773544   90.204521
H   99.891205   48.202736   27.795834
H   66.384697   45.532013   26.869419
H   71.257713   85.797981    1.306061
H   18.233307   49.694614   26.492821
H   90.778679    0.125813   44.567818
H   41.683971   95.280365   87.475861
H   68.518936   97.374161   21.496824
H   40.991730    7.083482    2.636598
H   34.763397   47.531467    5.884391
H   42.596493   63.986160   69.643028
H   58.782566   19.341272   23.554203
H   34.264622   22.535660   98.820213
H   46.784100   89.098854   95.542320
H   23.945839   74.288979   26.041502
H   53.802452   76.902412   90.798019
H   66.891418   69.716812   16.911001
H   83.864433   64.801125   93.959175
H   19.146706   39.095585   99.007774
H    1.941832   57.346443   38.134995
H   60.997673   10.608828   23.399263
H   61.092339   93.411369   67.906662
H   34.107567   60.555069   53.775211
H   20.586576   70.006363   79.843452
H   10.075071   30.954309   86.819466
H   62.538742   89.082504   48.955521
H   64.089531   83.611488   87.577644
H   47.536671   84.270477   36.894478
H   56.297359    6.554517   35.711559
H   96.747734   42.589119    1.191885
H   48.645710   47.263790    7.779339
H   43.461842   64.893806   64.856934
H   57.861671   63.060085    2.832602
H   31.386408   28.299927   39.854744
H   51.564671   89.501732   79.694962
H   54.383904   53.622387    9.613079
H   94.923813   11.391663   55.690842
H   65.034500   58.239799   59.179985
H   45.267029   74.422737   85.607864
H   75.848045   84.612076   28.186970
H   87.420029   11.183920   32.749596
H   28.143667   28.114151   29.800652
H   60.402374   17.846329   46.262894
H   47.828262   33.165154   59.122902
H   17.543856   47.696617   97.680687
H   75.388863   74.187645   96.604881
H   34.691933   88.334572   10.339201
H    0.516521   85.873718   19.446285
H    5.417363   79.589157   18.071875
H   10.977449   71.825150   92.182655
H   52.364792    2.714762   99.448425
H   87.578056   21.577745   49.134556
H   84.503738   15.516657   36.060066
H   36.248260   64.635963   33.927746
H    6.310082   80.719193   38.723824
H   14.484561   30.187525   83.648003
H   51.310825   77.111717   22.923256
H   65.466911   32.506218   10.232756
H   82.955597   79.775871   74.361450
H   13.558619   50.324070   29.786594
H   46.315140   49.863548   27.447357
H   32.114536   40.506481   44.836163
H   22.731205   51.313431   96.050003
H   86.448006   25.366232   33.240665
H   24.807859    5.006447   64.327278
H   99.498337   81.016983   42.573814
H   26.319675   48.909489   17.129143
H   39.619423   24.464592   75.280045
H   73.421524   18.426666   84.463310
H   78.199165   33.760536   19.323063
H   70.408981   64.637787   63.001278
H   68.425209   32.019047   56.374950
H   58.565968   77.108589   54.195099
H   54.899422   60.139214    2.853120
H   52.097794   79.046638   99.975166
H   37.833942   52.542633   41.017967
H   83.538116   52.885307   11.407385
H   76.480270   29.946196   74.789658
H   10.848901   25.475800   38.676323
H   57.025108   41.527302   54.165119
H    6.623611   50.835026   93.184639
