100
TIME:    3.018, STEP:  3018
H   13.227453   45.255302   96.382950
H   17.319160   68.377365   68.374527
H   31.631460   91.031448   87.912331
H   81.983170    8.308069   74.737244
H   68.139099   14.663510   83.874741
H   81.221199   97.938469   77.628960
H   94.797447   65.128807   26.464470
H   82.677444   49.696651   31.091206
H   79.439735   96.124893   10.114143
H   92.367699   59.717369   25.871233
H   19.528015   87.678452   49.040066
H   40.652740   74.967484   78.104698
H   51.286644   79.114105   25.164577
H    5.647548   95.773537   86.911018
H   17.210732    0.447721    5.698998
H   80.176880   47.763824   82.520851
H   81.417488   81.587646   48.128796
H   65.637657   47.935371   94.914734
H   92.273216    4.960528   22.362688
H   11.210129   41.724178   21.812067
H   85.184326   55.766670   75.327728
H   51.718948   48.090424   62.267700
H   45.449379   70.077019   46.002396
H   38.636627   72.877869   82.930855
H   21.642944   46.817390   58.828766
H   32.820652   37.682903    6.294612
H    1.832897   17.021879   59.855381
H   77.891380   97.309761   66.533073
H   76.794113   22.908480   14.509920
H   16.717113   16.144882   23.310719
H   34.832058   92.685669   70.604393
H   56.315529   69.125175   19.872658
H   82.941620   47.670753   69.682228
H    5.618419   97.141151   44.606918
H    5.751379   30.782593    8.504463
H   34.958065   21.564161   10.265542
H   69.263710   94.009262   46.271847
H   39.251480    3.716269   35.413166
H   17.681015   15.660089   51.845444
H   78.931137   29.647940   75.484901
H   28.992430   59.736225   13.448676
H   60.380516   47.308685   44.588974
H   37.236637   81.597992   19.467228
H   86.639771   63.354591   75.817467
H   94.866646   12.817560   14.369266
H   39.151257   20.480518   95.423378
H   65.312790   88.966339   54.431358
H   56.400593   26.456430   55.314659
H   53.246933   82.498650   24.084291
H   89.177757   76.678932   72.580841
H   43.314365   78.274933   85.238144
H   51.801502   83.691559   75.936424
H   71.482430   39.508118   27.588211
H    6.805645   57.968498   64.992462
H    0.495126   23.073814   26.017443
H   97.342422    9.360178   89.886963
H   87.579994    2.463432   43.024422
H    1.330043   91.874481   35.819901
H   28.300064   66.286606   79.790245
H   59.860634   59.762608   77.771492
H   50.078682   38.220852   79.088394
H   91.799889   99.850967   58.801338
H   78.952965    1.339817   26.517166
H   50.280693   58.211670   45.203373
H   52.113064   19.801048   76.622185
H   15.944498   92.239204   24.631992
H   45.429024   52.701160   12.771106
H   71.891823   90.139343   10.480453
H    7.317770   32.932091   70.949898
H   91.530090   99.938545   95.378082
H   26.197765   90.054695   25.946152
H   25.119555   51.363617   77.586212
H   10.212042   69.022270   84.365715
H   63.776157   58.395607   23.839836
H    7.682248   32.940472   30.183292
H   97.003044    0.997621   92.856720
H   40.969845   64.967667   44.424503
H   73.771454   53.381840   81.113113
H    6.237972   44.653912   51.353958
H   51.516975   44.587551   60.917801
H   69.939865   60.504253   60.367451
H   67.769119   63.937393   34.414650
H    8.747715   57.632507   17.349339
H   57.782810   70.415741   87.769287
H    5.377307   60.108166   55.191154
H   81.832458   19.909771   51.362331
H   68.720116   83.919731   67.453186
H    4.537928   63.666016   64.356392
H   18.314976   26.134489    3.508630
H   99.506226   85.106522   32.104492
H   47.531616   36.395191   97.196365
H    1.592633   22.476801   91.030724
H   78.914307   18.071409   52.391014
H   38.929180   96.296349   30.307270
H    4.409946   79.395813   85.437798
H   43.196030   76.553963   11.565449
H   23.047626   40.877285   63.621666
H   17.945181   41.934143    7.745766
H   64.942894   49.859707   92.247154
H   26.670732    1.188474    7.005645
