100
TIME:    2.772, STEP:  2772
H   29.862823   67.814812   96.608170
H   24.162086   55.039345   52.856892
H   27.402960   73.332932   90.798897
H   81.941879   18.443895   88.220398
H   70.342499   94.945541   90.544998
H   85.034920   98.204979   53.266865
H    7.690571   48.517105    7.226942
H    2.012566   28.415262   53.678867
H   85.486885   19.777023   25.599117
H   99.090508   56.185173   16.237459
H   42.410339   77.780045   72.735748
H   50.042526   62.636703   95.615532
H   66.934135   93.997375   49.614319
H   17.827782   96.531776   68.191505
H   14.218124   22.420973   17.524336
H   90.067780   69.279816    2.940875
H    1.199304   65.315521   25.734446
H   60.381241   59.898293    3.443436
H   88.440727   94.640915    9.403170
H   17.837219   46.947399    5.063268
H   99.782318   80.256195   82.005493
H   28.134689   47.763855   83.216888
H   48.733833   72.077721   53.040512
H   61.492676   69.927490    1.200033
H   30.440590   66.327271   57.013870
H   33.948627   45.011929   29.352240
H   23.045792   27.247793   54.973743
H   98.649132   85.827309   58.401348
H   71.445145    0.589838   26.137827
H    7.284665   22.233322    3.755028
H   25.150152   70.625397   90.067131
H   40.782875   75.923058   42.646126
H   65.614716   65.669563   47.520607
H   95.224266   19.685379   54.970779
H   11.866651   49.378235   93.524651
H   13.568891    2.239311   11.111054
H   45.669647    3.018333   26.887938
H   49.418274    8.218563   18.054356
H   28.065521   21.019381   75.684952
H    2.102394   52.678436   56.130253
H   45.804668   51.296116    7.653263
H   82.489586   36.267288   33.031448
H   35.117695   80.122803    1.698579
H    2.348741   59.231194   51.764954
H   16.205500   22.522808   93.318092
H   42.324978   15.788441   94.424904
H   63.390324   75.588287   52.068428
H   56.387455   23.923647   40.093559
H   46.056793    2.873281   33.897484
H   84.020226   72.936531   89.787628
H   43.333134    2.024422   82.644363
H   39.846088    6.517914   92.084679
H   66.381203   38.081726   41.876236
H   12.501827   61.983040   54.136871
H   20.081024    1.512987   23.926832
H   97.034622    9.618711   98.261383
H   71.983528    9.562051   19.627846
H   19.647552   15.106284   42.156082
H    8.899261   55.892712   98.674919
H   76.094742   40.853535   84.768318
H   34.561043   49.660137   98.269608
H    0.530848    2.141127   69.931824
H   62.257015   18.123590   43.388351
H   33.387337   56.873489   51.883015
H   42.347912   39.449009   53.712746
H   31.056740    4.468582   10.087299
H   65.165779   44.197239    0.893690
H   88.884651   76.070618   98.720230
H   95.057365   50.608086   86.377449
H   86.545227   87.566475   95.896088
H   34.009834    6.792493   28.897469
H   45.402786   59.527832   59.575684
H   26.252378   81.191643   90.671867
H   69.189018   73.962723   38.460350
H   95.821434   32.589504   11.534161
H   91.188622   85.232170    9.409660
H   18.634241   86.288467   40.074009
H   62.213924   69.467522   67.528610
H   94.441040   45.376492   48.608154
H   63.581245   57.986248   82.110977
H   65.127670   57.959270   45.664356
H   49.310867   62.330826   54.984718
H   93.184219   53.526001   93.919281
H   40.859425   49.365204   10.238190
H   17.355816   75.494904   79.038170
H   87.492981   10.873768   34.279415
H   52.290337    1.805939   55.722992
H    0.578753   83.361481   66.916389
H   13.209312   39.831200    5.521297
H   21.256191   95.226395   23.310612
H   37.464294   23.112228   92.001297
H   83.391006    3.977182   86.342400
H   63.140873   10.692698   33.365211
H   15.151625   81.375542   13.720777
H    8.663586    1.429916   79.784782
H   22.877457   86.268440   24.271759
H   42.573746   26.759762   77.769218
H   17.042425   39.839600   11.681950
H   76.661827   48.799297   12.853371
H   11.391861    7.502107   30.702738
