100
TIME:    0.585, STEP:   585
H   77.761391   68.373848   98.610428
H   84.997368   36.462780   14.901795
H   89.815552   15.991324   16.471008
H   81.574799    8.547564    8.096803
H   89.931259   19.647850   49.843147
H   18.944889    0.576949   36.679989
H   22.311066    0.838618   36.200535
H   73.906448   39.211613   54.482048
H   39.247581   30.048126   63.264854
H   58.853447   24.785007   30.598040
H   45.839752   89.781403   83.399055
H   33.512775   53.013664   51.287849
H    6.051126   26.314240   66.983849
H   26.115971    3.273578    1.757853
H   87.617485   17.769350   22.651533
H   78.002335   60.569836   84.479965
H   77.033424   20.683975   26.617651
H   13.645406   66.252090   79.265427
H   54.373680    2.893117   94.183609
H   76.813972   93.266632   56.097908
H   29.561813   97.978119   41.365303
H   18.441578   44.872070   69.444771
H   77.933434   89.864449   15.612129
H   64.688690   43.697910   63.628899
H    8.661253   39.779613   40.878555
H   43.976604   10.178809   34.341476
H   11.633177   18.158890   11.574797
H   83.180199   83.745010   86.111069
H   23.891510    2.168060   29.518391
H   23.424677   76.361038   29.893986
H   39.113987   74.502586   63.119835
H    2.694623   36.348679   45.107689
H   11.563986   25.680559   50.498375
H    2.819452   20.110809   47.105721
H   66.230736   14.698804   60.349564
H   23.418751   30.440611   18.631430
H   35.908291   83.111671   54.560986
H   39.810921   48.247044   63.721851
H   24.420425   68.019966   86.057281
H    8.093334   57.418217   84.060966
H   95.264069   76.252861   56.124325
H   79.044701   38.113205   30.284307
H   16.279783   67.008011   43.728043
H   42.002777   22.575327   37.930305
H    5.911434    8.810880    6.167212
H   70.480049   74.201469   85.612373
H   42.257130   57.299618   32.622017
H   56.270657    1.406477    4.774417
H   82.129814   83.999496   21.137705
H   38.159107   39.653469   42.748672
H   43.499989   13.165491   59.585026
H   33.562050    9.454983   35.658005
H   21.014246   25.400757   68.895393
H   63.142277   97.657555   57.630756
H   94.187378    9.788668    5.370182
H   94.298203   11.917137   72.712021
H   33.338058   72.666985   11.625881
H   82.498474   21.640999   98.486282
H   36.414375   63.486282   66.573822
H   20.415169   72.753555   46.970787
H   96.602524   51.364731   68.783508
H   78.148346   22.500259   68.887039
H   13.912748   67.260918   93.424660
H   83.210518   44.976738   11.256544
H   55.543182   14.120815   50.041542
H   65.407875   13.190998   80.775627
H   40.633354   68.585510   95.305466
H   39.955925   50.994186   94.168983
H   86.058464    7.751945   23.541874
H   42.236771   77.568016    0.500597
H    3.455156   55.600445   55.131260
H   25.731424   32.110619   99.452065
H   68.848663   89.370461   46.748943
H   17.314644   12.359293   68.440315
H   90.377243   29.476084   45.745167
H   39.489079   45.066010   56.565586
H   20.068825   75.841179    1.385581
H   59.464691   12.468643   46.748287
H   89.592690   51.788914   24.211414
H   70.836014   77.094841   70.522919
H   22.329838   35.333752   14.952877
H   85.216301   48.048050   37.861443
H   54.810017   17.021582   85.618286
H   90.412140   62.220798    9.996834
H   23.845095   12.291030   91.043358
H   37.828617   30.541874   82.407356
H    6.225561   60.818657   51.438183
H   65.372513   58.457451   89.658928
H   67.823189   61.600197   23.414326
H   14.614307   85.214264   45.125607
H   47.963169    5.020581   45.815868
H   21.571032   39.503304   44.669800
H   22.818363   45.158897   64.172020
H    3.769598   48.717873   66.260872
H   46.478046   97.328156   29.528511
H   42.240204   72.630180   37.233055
H   16.167990    1.252509    3.544937
H    9.013078   21.218597   46.675743
H   80.844078   39.371998   96.049599
H   75.571945   63.679111   41.342392
