100
TIME:    5.429, STEP:  5429
H   50.181068   24.154602   94.175613
H   50.539040   99.052139   20.420940
H   73.078232   64.487961   59.618786
H   82.387848    8.975033   42.581253
H   46.543991    7.915713   18.502693
H   43.833714   95.326454   16.398111
H   68.434868   27.929569   15.007951
H   93.177597   58.278477    9.720525
H   20.172752   64.317169   58.351860
H   26.479479   94.335762   20.282873
H   95.262680   84.690277   16.801083
H   48.632431   95.818550    6.487271
H   97.631241   33.288658   85.569023
H   86.269524   88.342171   70.390236
H   46.536156   85.087509   89.805115
H   83.235123   36.888931   82.386444
H   87.539162   41.056469   67.611633
H   17.163160   30.661869   11.328886
H   29.826954    6.104965   49.381832
H   46.249069   90.523232   85.964211
H   42.112160   15.742851    9.892307
H   82.863861   51.291061   56.948776
H   13.258664   50.468513   77.019928
H   14.625259    1.774874    3.867841
H   35.411163   55.613785   76.634254
H   21.797876   66.165695   79.898758
H   93.929977   16.799389    7.685177
H   74.457954    9.847054   46.227661
H   29.219673   41.653080    0.541223
H    9.165695   56.472008   14.978584
H   29.720009    8.884875   79.853737
H    8.547623    2.516645   96.674355
H   52.769405   71.270927   86.884148
H    7.489253   76.187309   43.035408
H   45.821594   48.529373   55.315254
H   44.571033   10.651058    2.358037
H    0.511176    5.713066   36.249187
H   39.601269   59.603107    5.551810
H   15.911508   63.128227   18.201822
H   51.841816    3.938025   65.178001
H   64.217957   42.464348   70.250587
H   43.692894   55.515450   57.854641
H   58.003994   96.056046   93.616646
H   32.683613    3.768396   11.555219
H   85.729973   17.692215   20.684778
H    8.044802   66.466690    5.217082
H   84.148727   20.085545   77.579201
H   56.529354   51.286911    4.493683
H   23.725792   82.819946   27.908466
H   39.740208   13.364202    3.953742
H   43.130421   45.508820   10.657378
H   68.971764   59.969624   17.657669
H   21.485302   53.487915   87.561333
H   50.966568   18.622726   71.383324
H    8.529606   34.376385   46.524593
H    0.357518    6.822942    7.810837
H   40.426430   32.895424   72.330498
H   21.800953   64.185631   73.716537
H   18.450865   68.157692   94.695656
H    0.761801   45.079662    9.196907
H    2.165686   26.098778   91.108665
H    6.231537   77.409714   49.710342
H   42.635395   36.818283   61.187622
H   15.838855   71.337204   79.743149
H   47.809677   27.238537    1.147758
H   67.833946   72.381432   67.188179
H   51.989868   36.057316   29.175022
H    5.347552   28.028090   25.740194
H   27.482519   59.693016   19.734634
H   40.376534   21.204708   90.301208
H   49.637794   26.011459   97.022316
H   26.321552   71.346970   54.108574
H   53.010605   49.764595   22.547958
H   10.697132    5.818076   80.581047
H   23.925619   36.380238   12.952915
H   54.005493   55.521751   30.627016
H   59.873821   55.997288   87.062889
H   87.044617   95.731087   14.262254
H   21.853817   37.572041   78.255318
H   33.278839   13.275121   53.208008
H   17.108767   85.447159    4.467992
H   48.672516   79.678726   32.805344
H   61.272568   97.911438   46.974682
H   23.656816   76.730270   67.560852
H   87.981514    9.296958   21.471611
H   26.342251    8.469531   18.789627
H   29.745367    8.620386   82.419144
H   43.342247   70.640381   39.287437
H   68.350449   91.894600   83.788582
H   86.342163   85.911667   18.291574
H   46.199730   66.580460   48.112347
H   79.989922    3.792344   36.971008
H   33.462723   90.416847   38.837482
H   71.959206   42.544262   92.868340
H   62.727318   63.433933   40.837955
H   42.334747   81.346649   87.033875
H   31.673471   79.239952   24.962555
H   26.792921   62.462372   69.156914
H   50.087982   60.252583   90.301018
H   76.426437   39.317135   74.748413
