100
TIME:    5.193, STEP:  5193
H   66.141029   45.796730   94.391678
H   57.056984   86.264725    5.540363
H   69.019821   47.508896   62.389812
H   82.348236   18.698833   55.518112
H   48.657822   88.999359   24.900902
H   47.494205   95.582130   93.026207
H   80.804558   11.993128   96.552368
H   11.726738   37.862186   31.389858
H   25.974083   87.007538   73.206978
H   32.928230   90.947151   11.040716
H   17.214813   75.194244   39.533466
H   57.640518   83.989021   23.285402
H   12.690903   47.559715    9.019287
H   97.955009   89.069588   52.430519
H   43.666100    6.167997    1.148620
H   92.723953   57.530289    1.976350
H    6.516921   25.447613   46.127625
H   12.116601   42.144001   19.509626
H   26.151157   96.204636   36.949123
H   52.606766   95.535927   69.896217
H   56.116737   39.238060   16.297718
H   60.238312   50.977768   77.046371
H   16.409996   52.387886   83.771942
H   36.553288   98.951630   21.395428
H   43.852081   74.329376   74.891335
H   22.873697   73.140976    2.092078
H   14.280294   26.609615    3.002206
H   94.371895   98.831406   38.425934
H   24.088142   20.241587   11.696594
H    0.116692   62.312950   96.217628
H   20.431938   87.721924   98.525307
H   93.646523    9.036651   18.521996
H   36.145046   88.538078   65.623405
H   97.517532   97.815361   52.977974
H   51.687744   66.369095   40.945168
H   24.056063   92.166389    3.100268
H   77.874847   14.356544   17.653240
H   49.354778   63.922596   88.897362
H   25.873875   68.270561   41.071701
H   74.070259   26.031761   46.609173
H   80.347168   34.367332   64.690529
H   64.903221   44.922890   46.768734
H   55.971188   94.640823   76.569160
H   47.752308   99.807068   88.480148
H    6.201803   27.002792    0.489055
H   11.090189   61.965351    4.257959
H   82.304977    7.250430   75.314125
H   56.516750   48.856186   89.891365
H   16.827934    2.366373   37.323082
H   34.790531    9.772131   20.459320
H   43.148426   68.292816    8.169486
H   57.502342   81.868088   33.151291
H   16.589642   52.119507    1.267110
H   56.431198   22.474075   60.969017
H   27.320911   13.694360   44.516994
H    0.063550    7.071191   15.844833
H   25.465767   39.705055   49.885002
H   39.373672   86.472679   79.795151
H   99.838509   58.186142   12.813179
H   16.335087   26.939251   15.909309
H   87.278778   37.073536    9.509454
H   14.606783   79.606369   60.389328
H   26.612719   52.922287   77.370850
H   99.633034   70.051620   86.149460
H   38.441483   46.088131   79.170357
H   82.331871   84.113731   53.234016
H   70.924316   27.898628   17.780323
H   21.649910   14.530364   14.458030
H   15.719622   76.650475   34.536850
H   35.596107    9.334414   90.798157
H   57.131630   42.068649   99.852760
H   45.780220   79.179306   36.828819
H   68.397995   61.437477   28.599564
H   15.891682   20.754398   94.603630
H   12.547261   36.043537   95.062225
H   48.425629   40.395439   46.506031
H   38.445629   76.452095   82.889244
H   75.956909   11.162430    1.228522
H   10.537225   38.265247   75.622932
H   44.850891   26.130859   73.539673
H   12.490730   83.005630   90.362755
H   30.962746   78.141800   52.542259
H   46.344315   93.964661   24.498579
H    7.420473   56.535446   89.116882
H   99.472542   24.059357   44.349236
H   31.774471   99.800865    2.400777
H   13.983465   25.779526   71.165787
H   39.544617   89.530869   41.738602
H   63.452988    5.034714   85.718758
H    7.207236   95.620163    9.855486
H   36.541649   53.837696   43.128460
H   62.528309   86.042786   32.475067
H   18.334612   83.337135   20.587238
H   49.151176   28.226393   76.955193
H   66.807335   84.572289   35.414738
H   22.842133   90.666229   99.223511
H   50.406242   65.696312   38.535004
H   25.926863   60.452972   72.934441
H   61.330536   59.235279   10.068214
H   61.766735   45.372341   97.481995
