100
TIME:    8.359, STEP:  8359
H   52.036858   55.460930   91.493118
H   69.621323   57.827442    5.166265
H   23.454462   75.284027   25.217991
H   82.879639   88.258965   81.977852
H   20.295263   42.767963   39.057663
H   98.390503   92.152168    6.565433
H   14.875392   25.777430   44.137852
H   62.885376   11.762216   40.698448
H   48.147697   82.608841   73.918793
H   46.445992   36.407856   35.009377
H   22.721207    2.585247   34.568542
H   36.801964   42.683956   97.926811
H   10.724047   56.026245   94.412872
H   41.193123   79.311104   93.363075
H   82.134407   23.365738   48.915756
H   65.425980   80.620201   39.171173
H   51.926003   34.853497   34.341103
H   79.816132   88.090157    9.762802
H   75.457870   29.023533    3.747647
H   67.307388   28.301508   85.452217
H   68.241814   24.052296   30.366961
H   63.765812   55.180679    7.432181
H   74.137505   26.641531   93.188751
H   42.386391   36.826141   86.262024
H   30.617771   23.249557   98.273048
H    8.194017   79.680161    4.262673
H   41.273102   95.002579   65.826767
H   27.233847   46.609562   43.077011
H   92.928932    7.486109   62.037529
H   21.514202   83.953995   47.904846
H   45.035381   71.622704   48.041603
H   93.549767   21.562336   25.429543
H   59.154644   56.898003   50.841690
H   31.290340    7.670252   19.599802
H   72.923241   26.776390   33.620716
H   99.271667   40.143044   93.146950
H   81.535576   98.409431   67.121849
H   18.499851    5.976604   12.313376
H   92.235191   99.290428   34.262764
H   75.868530   29.641478   95.703064
H   63.973053   42.999039   39.278896
H   95.762802   74.382980    6.702948
H   83.224762   13.630964    5.253380
H   45.593044   52.950157   98.034332
H   31.574772    2.091272   71.413383
H   70.224480   22.347858   17.120653
H    7.043653   79.428719    5.704282
H   56.697811   81.464981   85.785118
H    9.374092   40.157417   11.029341
H    1.239159   57.962765   99.070641
H   42.927624   62.636040   41.544022
H   11.375877   88.085770   25.320412
H   82.259453   70.477051   17.394434
H   83.116241   70.822754    0.676780
H   75.238747   91.147507   71.442764
H    4.006884    3.740867    8.066711
H   26.176460   48.351128   50.997948
H    3.627770   87.482597   98.245384
H   49.531963   91.965675   69.766525
H    7.411914   70.289551   25.860741
H   86.992447   89.839355   62.661396
H    2.240676   50.137680   17.135883
H   41.553249   36.880280   60.268738
H   17.036938   87.298050    0.190088
H   64.108368   93.224304   74.006104
H   87.842445   26.722557   40.433674
H   16.910261   37.354664   70.634567
H    2.952345   95.596916   65.811142
H   73.514557   49.161903   35.971046
H   99.791679   68.493729   84.114304
H   56.595058   26.654316   61.881630
H   84.923874   74.048241   68.756332
H   61.968781    4.841848   47.426395
H   46.192921   20.379131    6.490658
H   65.132553   40.623394   35.086552
H   23.268267   43.306610   33.474998
H   25.958561    2.306948   38.990150
H   24.698851    4.149731   76.079956
H   62.355751   28.965702   10.942699
H   89.592522   53.665306    0.785988
H   74.456505   15.760049   79.588943
H   68.547928   98.679871   87.690056
H   46.600174   46.910191   26.011890
H   25.235588   27.457170   99.952538
H   45.316772   26.015278   37.441628
H   58.912113   16.093060   22.257706
H   25.433565   95.584755   22.132683
H   90.464745   36.178497    8.908180
H   29.158661   28.756090   59.824959
H   27.290644   65.366348   23.031607
H   66.107414   24.793110    9.988914
H   96.780251   24.155930   92.800789
H   21.281361   78.329491   65.418884
H   55.130051   20.303699   90.433357
H   12.068470    0.980495    8.167896
H   84.340698   65.644165   35.695854
H   99.104607   47.384499   56.455025
H   22.142511    0.063998   11.073599
H   10.509521   72.898384   44.884052
H   58.419628   64.125076   92.490814
