100
TIME:    6.854, STEP:  6854
H   53.814041   93.476357   92.870987
H   11.185684   76.272865   10.271499
H   97.583466   67.008186   42.886951
H   82.627029   50.266022   64.473389
H   33.780396   22.135664   79.865540
H   21.731167   93.782646   57.521488
H   93.752426   24.152233   26.444880
H   81.175407   81.559814   78.882637
H   85.143471   27.309341   68.653175
H   87.552406   14.798120   76.079567
H   62.712646   42.028004   79.537132
H   94.241562   67.246246    5.054255
H    6.698776   47.113918   43.973564
H   15.712219   83.949928   78.832832
H   63.854683   57.799767   21.294170
H   25.939701   12.253191   64.099121
H   72.949165   35.309460   97.334999
H   47.637058   61.323395   61.928719
H   52.017010   65.889084   24.457539
H    7.860435   60.257244   82.984825
H   57.550644   73.880463   71.211540
H   19.479996   53.182770   35.596848
H   94.231422   38.879082   36.250351
H   82.222832   18.821993   98.035385
H   84.446358   42.603973   87.158241
H   15.290066   24.044403   45.891289
H   71.051643   57.566032   35.962170
H   54.220474   76.361259   93.328781
H   60.204552   70.940529   33.179047
H   63.805866   21.203606   28.261555
H   85.803627   36.667152   67.112343
H   98.523132   63.139523   64.754951
H   53.144337   67.011101   15.259404
H   67.699593   45.594467   83.003601
H   10.378811   40.726051   42.054787
H   68.444176   22.263535   97.877632
H   37.186905   53.527466   48.533665
H   80.703468   33.521450    6.110119
H   55.764439   32.078117   80.108963
H   17.623596   70.535492   77.293564
H   66.829269   91.361305    3.822727
H   22.596313   68.481110   29.869343
H   70.272797    4.603054   96.546288
H   41.692104   27.686789   50.882973
H   62.121010   61.465992   42.625797
H   89.652428   93.646408   11.006361
H   95.281540   97.581192   91.256035
H   56.605953   65.963959   92.664627
H   65.376350   64.800575   71.066849
H   69.640381   35.055698    4.299744
H   43.030964    7.933803   25.677856
H   38.231319   27.738914   24.113991
H   51.045963   61.750549    4.798536
H   17.970390   95.371780   34.263565
H   95.068832   59.257576   58.646748
H    2.132408    5.323980   59.300461
H   30.765749   91.776955    7.859890
H   15.692876   29.612093   37.013046
H   30.837425   28.370602   85.302406
H    6.726400   54.610271   68.666527
H   92.055840   59.827240   80.003860
H   55.656075   64.146011   85.232208
H   39.378559   39.578773   63.471100
H   13.691162   79.099731   41.054523
H    4.368869   13.426277   33.852589
H   80.295471    1.540767   51.445816
H   37.659653   85.322540   97.972549
H    6.913086    9.524558   93.863434
H   98.503273   57.301605   30.361691
H   69.243370   92.877861   87.300568
H    4.386271   29.055527   79.931709
H    8.835774   24.047535   58.446114
H   60.097672   79.280884   86.011780
H   79.324486   15.630173   95.912720
H   92.630241   38.413280   20.977901
H   87.689827   46.850399   34.742393
H   89.272064   32.569637   12.298182
H   53.993710    2.553491   92.959785
H   90.187798   33.386364   94.150017
H   63.398361   35.650307   30.442863
H   44.995155    0.189481   89.636963
H   55.614662   88.919968   13.599133
H   51.406921   21.741125   82.683762
H   21.694279   98.670433   37.409931
H   18.596418   20.162994   83.334007
H   93.544235   60.815224   17.745956
H   24.917955    5.010912   50.368568
H   66.260185   56.610744   24.512543
H   97.921982   12.552782   72.133919
H   60.353947   27.283642   69.228943
H    4.516601   43.527679   78.205734
H   85.425491   10.965861   64.118156
H   24.807957   33.173489   49.034920
H    9.679748   28.997034   88.953735
H   38.091621   35.790245   73.584076
H   60.033890   25.074430   13.431103
H   18.564146   61.016693   43.009735
H   25.047518   25.595634   41.287346
H   82.204399   66.399437   70.943626
H   64.937950    2.750825   37.473049
