100
TIME:    9.624, STEP:  9624
H   66.490143   39.454781   90.334976
H   34.684036   26.374302   84.929192
H   45.198582   66.293022   10.368729
H   83.091965   36.142570   12.637828
H    8.959948   44.163025    4.760397
H   78.779297   90.781700   31.842491
H   48.575481   11.195956   43.062511
H   63.458878   21.200550   24.549767
H   17.051582   60.983597   94.290611
H   11.891943   54.571384   84.539253
H    5.053955   53.483551   12.714869
H   88.519386    6.091972    7.882555
H   30.059219   79.460320   68.700302
H   78.558792   75.412025   89.630379
H   97.499092   10.369698   88.082298
H   14.562584   69.978683   34.165100
H   50.202217   18.524139   49.499039
H    6.870619   26.534904   65.909256
H   95.165588   82.092102   70.391830
H   33.228123    1.437443   71.579277
H   93.174423   98.117867   96.031219
H   85.042603   56.859985   99.705811
H   57.247932   16.358194   56.996811
H   24.849159   51.959198   92.312149
H   85.375473   22.928955    7.611656
H    2.226994   42.387985   85.220802
H   32.190353   42.418964   90.919846
H   20.496763    5.655492   84.890770
H   20.435940   22.256517    2.241079
H   70.020012   52.645554   48.468727
H   94.819862   85.058365   47.958847
H   73.422592   86.610870    8.322151
H   48.259689   64.344727   64.802879
H   84.738663   91.740593   66.307594
H   41.441078   30.998116   10.584153
H    9.235453   39.226711   89.170662
H    2.866225   52.083748   66.798904
H   66.212151   82.831093    1.581097
H   38.840290   71.726646   11.675468
H   56.719509   11.215713   95.230728
H   77.519424   86.405396   69.081749
H   89.155327   79.344437   71.280022
H   94.111298   21.220867   96.624870
H   64.826576   74.187782   21.717266
H   21.842382   52.187046   79.663940
H   53.900650   46.473888   22.259909
H   16.934048   48.226910   17.852118
H   56.775021   94.494080   64.055756
H   46.347778   35.390430   60.570755
H   27.790907   77.223503   10.622385
H   44.869740   40.661438   51.764297
H   72.855362   70.704056   42.280525
H    8.493643   77.811951   43.925949
H   53.818604   50.182060   56.496529
H   74.517555    2.005649   82.194183
H    5.582439    2.410210   65.003113
H    6.372643   11.850075   71.309914
H    9.433301   68.019020   65.662987
H   49.304424   45.419418   72.651543
H   23.934452   67.521851   89.881142
H   66.793762   31.011068   64.039452
H   57.343346   38.363235   59.901581
H   27.436951   50.563667   73.526138
H    3.902245   94.188995   65.851120
H   14.315238   92.189674   91.809517
H   10.132286   63.836052   15.230819
H   15.416889   81.087952   31.709644
H   15.570437   67.944221   26.285461
H   36.561195   58.267075   56.633503
H   25.483414   32.032864   81.431274
H   16.419052   40.580570   46.709969
H   80.753792   32.046288   61.479847
H   79.489410   42.267384   14.988766
H   18.349255   40.317104   31.327597
H   26.068075   42.486073   30.999640
H   53.177284   24.380501   48.355675
H   40.847603   92.818161   61.429153
H   84.125053   21.439079   45.948318
H   23.019690   25.249996   25.061518
H   27.555058   84.754036   91.805122
H   99.221443   28.847055   55.196800
H   63.471848    6.890461   81.859627
H   26.612303   68.065590   46.484653
H   12.265359   35.706131   84.413658
H   83.722916   46.880371   14.815289
H   29.794491   62.561859   10.103038
H    9.920122    3.608701   82.452583
H   10.808542   34.955238   95.795258
H   55.410404   58.323204   49.478889
H   15.447728   13.317764   68.249268
H   17.877066   93.098648   36.703392
H   90.377441   19.296251   16.902987
H    2.370564   16.282034   63.243279
H   75.356667   96.895248   78.846779
H   90.196640   87.670143   37.233955
H   88.824509   15.691198   70.356750
H   98.694847   19.979908   83.702805
H   19.700762   62.654263   85.673790
H   50.247795   78.360954   38.926998
H   36.994835   31.668060   70.630188
