200
TIME:    0.610, STEP:   610
H   20.840490   61.247044   21.666348
H   31.262110   38.279739    4.917869
H   10.382802   85.332993   63.572685
H   30.314678   81.298409   34.824287
H   11.281758   93.106842   48.338791
H   77.581848   42.772614   54.597885
H    8.719863   55.041603   56.813000
H   11.180120    4.863455   11.939010
H    2.454501   81.959274   38.693272
H   97.836533   69.716087   81.478188
H   25.090090    2.498108    4.654015
H   32.307800   51.898674   30.371908
H   20.255367   99.287392   46.127190
H   86.915611   54.767986   60.095089
H    1.758236   74.792870   42.068214
H   18.515591   10.721424   46.341324
H    1.613141   25.047428   97.467873
H   27.776318    0.954033   36.933186
H   77.335983   16.306664   47.930573
H   91.233391   74.623497   23.127689
H   62.525459   95.228333    8.889252
H   81.791878   62.956978   56.316345
H   83.925423   59.851257   40.258263
H   16.445240   91.432518   90.425880
H   19.328613   27.584837   32.207760
H   18.354811   78.756805   94.736320
H    6.061000   66.220924   63.958420
H    3.001764   85.392723    1.704849
H   26.652279   45.283394   36.171806
H   76.329529   30.676168   85.826981
H   12.878428   66.907326   16.647179
H   25.197727   72.178207    2.712679
H   18.183250   16.947065   77.698578
H   84.180916   63.981590   44.757507
H   30.232477   74.512314   31.404531
H   20.975113   41.485786   83.719261
H   96.884125   66.443085   88.732643
H   14.613433   54.326275   98.531570
H   39.376480   33.151447   52.656082
H   86.534393   38.166958   49.243256
H   80.614403   87.939514   13.805463
H   31.755754   35.348213   28.859829
H   70.039871   79.282249   64.067223
H   36.456985   81.204323   31.981272
H   41.419075   87.583832   57.716118
H   35.852997    4.209314   46.711887
H   86.946655    8.084929    4.291292
H   81.108025   65.544960   34.346268
H    1.389543   14.711210   61.433094
H   48.876698   19.471235   90.059250
H   69.406509   65.812965   13.205371
H    6.994322   42.066387   71.496590
H   62.155739   83.839333   12.764614
H   16.899868   89.991776   87.182365
H   61.537582   68.156250   78.807182
H    0.562517   63.234871   90.764008
H    4.374552   18.145607   45.685627
H   71.451035   67.180695   98.625206
H   20.373793   81.624985   16.075352
H   34.545742   93.911537   60.154404
H   49.221207    8.157606   31.426262
H   96.586235   17.301386   51.902519
H   81.640717   32.871201   72.402161
H   33.090874   65.680214   11.928558
H   77.296173   81.594971   33.059559
H   24.225504   30.935915   39.513992
H   72.354347   15.357411   93.479469
H   95.269432   92.291145   94.596916
H   29.683439   10.853267   57.296654
H   43.107105   48.078846   50.962833
H   58.302849   82.991592   83.178345
H   21.741730   14.096389   42.174839
H   89.236954   32.059734   87.106155
H   19.919512    0.831837   71.344276
H   83.650345    6.861018   50.215332
H   62.665947    6.013987   60.459679
H   93.863708   43.724419   66.911964
H   12.850965   12.707438   35.315407
H   14.343555   46.177708   26.743649
H   62.700581   88.603424   76.714630
H   59.071758   23.848673   95.640564
H   42.905872   61.936291   76.418938
H    9.556165   17.724890   79.453987
H   12.608389   73.958443    5.910621
H   25.732445    3.236437   47.296623
H   35.091179   72.828613   20.080605
H   52.438202    3.555107    2.619586
H   72.254555    4.773361   25.397781
H   77.010757   72.957794   78.503296
H   21.590912    2.631718   50.794918
H   25.732815   38.086880   79.108749
H   81.478142   91.781769    6.441139
H   64.836395   12.689182   85.192032
H   43.436413   81.140724   79.264198
H   34.500191   51.921242   83.349861
H   53.949501   35.981735   11.665066
H   84.324669    1.481592   14.264114
H   96.723396   34.187935   52.096760
H   28.633965   66.071594   54.192474
H   73.637764    3.939521   27.340738
H   26.374296   90.656494   86.362587
H    4.330676   82.254333   63.823662
H   30.849150   23.647940   35.673145
H   39.654778   68.622620    4.855689
H   24.848265   22.610329   37.083347
H    2.071125    8.657782   26.567968
H   83.185539   34.691013   54.537277
H   62.571011   48.480499    4.434323
H   82.199562   35.419205   17.023975
H   16.252451   22.901583    7.348139
H   52.062592   92.851524    1.056173
H    0.850698   72.649597   94.725716
H   50.667763   84.568253   85.887352
H   61.970818   11.420605   65.412659
H   51.502998   97.375824   13.799367
H   98.938622   94.973671   95.626053
H   17.362461   13.652680   88.493454
H   38.893902   45.208263   26.582573
H   32.913864   71.604980   65.253067
H   80.546959   54.059505   63.145210
H   44.416267   24.218159   75.395576
H    2.324385   18.715000   59.071762
H   41.156685    6.217487   35.005390
H   98.626022   54.004379    1.662357
H   65.845055   99.791054   80.575966
H   61.277798   72.475494   18.387392
H   86.189705   50.917526   56.765366
H   67.335487   90.471886   38.127499
H   97.021019   39.090534   76.458336
H   85.678925   22.395634   72.805092
H   63.544792   71.974640   17.551128
H   67.498116   89.721115   18.052494
H   91.229561    0.596191    0.127498
H   82.777939   22.489414   54.260983
H   22.704395   94.679932   39.414703
H   52.503418    1.151990   78.230629
H   69.505280   87.507362   73.757927
H   94.374321   52.668331   77.352196
H   55.984406   49.507965   71.462578
H   43.648369   91.344780   85.176575
H   68.935303   52.187889   26.861969
H   40.205063   52.252930   54.872189
H   43.111313   63.571178   86.904312
H   40.758888   13.134336   84.255714
H   57.693676   57.496033   61.167393
H   59.496994   68.350235   12.125565
H   53.482170   95.157463   44.632626
H   32.549370   59.645882   66.702171
H   75.076630   49.344162   94.266251
H   21.256466   92.714333   76.150726
H   63.178627   67.593674   48.550961
H   49.362587   96.871712   36.557365
H   93.364243   18.003674   90.476196
H   19.690670    9.635578   66.809227
H   28.284435   63.650425   67.446938
H   74.485909   44.446339   65.444382
H   63.184246   71.979919   85.136887
H   51.306496   30.723389   18.392479
H   95.447548    0.340193   88.883110
H   59.531460   41.847076   92.440140
H   57.590401   69.377571   73.578163
H   26.231894   21.138863   32.338600
H   81.146019   18.438026   37.078205
H   24.856119   31.049145   55.368874
H   55.411476   34.643105   13.460056
H   18.288456   52.666492   60.279232
H   68.528603   91.582466   56.144085
H   23.955433   47.766785   63.312702
H   99.100502   26.966959   35.983253
H   43.357986    7.667537   86.236786
H   72.296509   10.033977   35.945023
H   33.380959   51.704086   58.594322
H   44.821877   61.555584   80.013260
H   66.669815   65.687935   82.823639
H   54.240906   92.253189   81.834038
H   12.330873   49.659447   23.641722
H   31.616741   64.479477    2.385587
H    5.009241    9.553719   69.611343
H   66.139290   12.778129   64.807373
H   68.699898   58.424065   91.604500
H   74.662674   98.448463   33.116585
H   26.690645   30.557705   83.123627
H   48.599140   89.777573   13.397125
H   59.538536   25.905033   90.802193
H   90.307739   72.286331   76.872482
H    7.006239   39.345871   85.806007
H   44.235596   98.186882    7.463465
H   72.645401   82.897163   38.473312
H   95.903175   62.823376   70.772079
H   56.341896   56.260601   70.377701
H   65.495590   18.782944   76.659248
H   44.619736   94.984283   19.911596
H   12.319005   26.326458   66.282280
H   28.639547   78.297592   40.769909
H   72.197311   37.728809   20.605976
H   76.231461   11.291353   24.497192
H   11.920711   95.648369   15.955182
H   18.156450   90.052589   36.531952
H    6.979276   12.647184   61.469368
H    4.148688   22.457222   92.608337
