100
TIME:    0.329, STEP:   329
H   95.073891   91.850410   98.844803
H   92.118462   22.582584   98.753784
H   85.417114   97.573799   19.476868
H   81.531830   19.095415   22.129305
H   92.224228   99.128326   56.784554
H   22.914616    0.855575   11.327179
H   35.727787   83.553383   16.181002
H   94.027542   17.065128   77.986748
H   45.540550   54.661407   79.378227
H   65.849541   21.110203   20.572649
H   69.652252   79.480621    8.058880
H   43.284260   40.181633   69.510506
H   22.335037   41.802521   92.429161
H   38.791752    4.062884   82.277214
H   84.504204   40.635193   34.957432
H   88.295303   82.960762    5.729904
H   97.615456    3.754349    3.309772
H    8.175191   78.701309   88.140427
H   50.387352   92.154373   80.695328
H   83.743660   98.633820   38.633064
H   44.753220   23.464233   48.312569
H   93.894386   44.534180   91.241646
H   81.351402   91.946480   22.937298
H   88.473846   40.627598   82.640656
H   17.816526   60.082348   38.987930
H   45.150433   17.806366   58.335617
H   33.708447   28.800491    6.494791
H    4.781381   71.795792   77.650131
H   18.325104   78.941551   41.619751
H   13.609128   82.696976    9.543400
H   29.043673   51.545555   83.377647
H   86.530701   43.420944   68.806908
H   93.531799   44.410698   27.435873
H   92.002922   43.571747   57.890877
H   72.594017   34.050400   44.761673
H    1.159978   10.330259   19.512289
H   11.354737   92.486671   34.389111
H   50.390999   52.932590   45.657398
H   35.929546   73.484810   10.593133
H   32.205631   81.383598   63.920334
H   12.758739   67.467705   50.091122
H    2.052526   26.622972   18.256964
H   14.075131   65.472855   25.237450
H   58.350433   18.285288   12.899799
H   28.117489   18.911118   84.260681
H   73.749580   69.388969   84.608467
H   39.554005   43.489071   30.434515
H   56.256985   98.770233   88.934616
H   74.645439    5.202181   31.349619
H   32.789967   35.756985   60.652969
H   43.519520   37.881081   56.885807
H   21.121496   33.209915   52.464645
H   15.703726   23.916382   83.762581
H   69.068344    1.833992   46.333881
H   14.567356   87.346756    3.197864
H   93.977890   12.186180   81.426865
H   17.109543   80.053703   87.278008
H    1.561031   45.816780    5.080418
H   16.224922   52.669876   86.226166
H   37.307747   53.076691   54.252037
H   80.454086   63.269028   88.744446
H   87.234283   24.883072   80.469070
H   96.548302   84.717949   10.987378
H   65.632393   43.584160   18.207716
H   45.381073   34.567272   26.199984
H   81.134438   25.917561   65.638908
H   61.172417   59.734890   82.946091
H   57.639519   36.353561   81.930702
H   73.300652   26.146477   39.598515
H   37.051224   64.693016    1.038927
H   11.584902   73.019356   58.201572
H   46.839138   40.606712   80.709877
H   85.540070    2.034206   53.313396
H   22.949409   28.559599   83.655159
H   78.033493   29.111826   26.338631
H   33.436344   28.658007   73.791306
H   96.825714   98.028679   96.854797
H   47.437347   29.207901   32.609615
H   77.323158   52.537983   21.356922
H   83.390701   91.036247   92.577606
H   17.320072   32.685314   99.652603
H   66.009270   46.376175   59.269646
H   38.612751   12.748750   61.235474
H   72.802765   40.314548   33.379646
H   36.310577   28.304588   15.859466
H   43.721195   21.138554   64.630013
H   89.127876   79.431938   39.231152
H   61.251419   78.953545   92.319084
H   62.510689   75.854103   25.509052
H   37.247871   95.749420   35.973263
H   37.486607   91.196793   40.409618
H    2.629341   20.249994   39.792847
H    6.393558   37.488976   44.367332
H   79.027168   33.188576   49.000851
H   50.903828   20.259495   23.646675
H   21.095673   82.739555   50.455711
H   36.487541   86.561134   18.267937
H    8.073136   19.038910   50.771446
H   93.039391   38.268482   17.493404
H   59.673504   70.253426   65.998642
