100
TIME:    6.000, STEP:  6000
H   11.567106   71.791618   93.652847
H   34.768929   29.994978   56.425755
H   82.897522    5.568392   52.914310
H   82.483688   85.449738   11.281909
H   41.429596   53.683884    3.021385
H   34.977184   94.707848   72.947044
H   38.510220   66.487648   59.660892
H   48.298126    7.678801   57.294628
H    6.136482    9.417884   22.407915
H   10.879412    2.534678   42.642002
H   42.149643    7.665630   61.798233
H   26.837440   24.439396   65.842491
H   61.194443   98.757927   28.831474
H   57.996590   86.582191   13.842175
H   53.480232   34.082962   62.359631
H   60.276978   86.946999   34.988983
H   41.622871   78.823677   19.592016
H   29.374105    2.879028   91.534706
H   38.718868   30.060678   79.464905
H   30.866676   78.395058   24.840479
H    8.228203   58.899204   94.393700
H   37.606186   52.049072    8.322815
H    5.634072   45.824608   60.683487
H   61.572392    8.605684   61.462276
H   14.990195   10.329170   80.851234
H   19.194937   49.285263   26.204796
H   44.692413   93.063675   19.015348
H   26.279499   36.499413   65.103622
H   41.635368   93.459198   73.549103
H   31.059044   42.339897   60.371292
H   52.194374   60.086292   34.678032
H   44.600834   86.738434   43.813988
H   92.988762   29.493334   38.324341
H   31.616703   23.858421   18.980635
H   31.628437    5.365242   90.086823
H   94.207672   55.374611    0.562297
H   55.276459   84.801880   81.241920
H   16.002281   49.152142   45.844257
H   91.809692   50.686394   62.867683
H   98.060822   50.483845   10.101530
H   25.193848   62.055008   83.703102
H   94.566559   65.132141   86.269951
H   62.922352   99.480164   34.860580
H   96.224197   13.352682   67.383263
H   36.200329   95.163681   69.546494
H    0.676421   77.357651    7.536856
H   88.609665   51.138687   83.059532
H   56.559849   57.168030   39.823902
H   40.415100   35.529663    5.130591
H   51.715908   22.055189   64.014816
H   43.089603   90.381927   16.676689
H   96.721931    6.983941   80.173378
H   33.330311   56.798767   54.399273
H   37.744942    9.305203   96.580650
H   63.066063   84.416397   51.381962
H    1.068752    6.222305   88.372635
H   76.625145   16.419579   26.637489
H   79.283356   10.261427   59.009384
H   63.482811   92.283348   50.861717
H   63.079254   88.967758   92.956322
H   38.185658   99.545059   46.588123
H   85.966194   72.094925   23.872627
H   81.400902   97.853432   22.032440
H   55.049774   74.447662   64.243134
H   70.474701   81.634506   54.323048
H   32.756340   43.995232    0.950186
H    6.176925   55.796093   56.742447
H   65.904701   60.683811   53.037296
H   55.942776   18.664589   83.923218
H   51.942734   49.925529   89.098846
H   31.506462   87.160782   90.174080
H   79.239273   52.396698   95.913467
H   15.779995   21.522156    7.906151
H   98.128227   69.677940   46.653526
H   51.454250   37.194881   56.238907
H   67.504799   92.116386   92.205811
H   11.715701    6.505529   97.160988
H   13.871242   58.396217   45.798058
H   49.233692   35.894833   84.624352
H    5.279733   82.170998    4.015858
H   28.282892   91.354416   38.594517
H   91.529068   83.381653   85.040764
H   97.387321    7.460086    1.352516
H   62.938797   25.592266   15.410270
H   60.179070   73.582436   66.119690
H   13.199039   29.443344   58.441437
H   67.881157   67.103905    9.646673
H   52.525505   24.947233   33.367111
H   80.199814   60.101707   79.118538
H   35.857952   62.421749   38.702698
H   69.567375   97.414948   60.170818
H   22.238138   46.736404   47.848900
H   70.065063    7.548017   82.993790
H   27.144573   77.186226   31.369722
H   52.855751   12.285625   53.959385
H   89.496964   58.798004   57.541153
H   86.350792   12.008277   92.123596
H   26.695940   83.338181   58.429634
H   22.886719   62.713940   42.474670
H   11.894995   24.665524   19.741199
