100
TIME:    6.904, STEP:  6904
H   50.432693   88.891090   92.825211
H    9.804955   78.982063   13.424155
H   98.443298   70.605446   42.299870
H   82.635422   48.206085   61.732594
H   33.332550   26.143385   78.509796
H   20.955639   93.728477   62.473347
H   91.131729   27.528622   30.354944
H   77.245506   85.885681   74.292030
H   83.914375   22.502060   65.506050
H   86.186745   15.516142   78.037270
H   58.061768   44.039875   74.720695
H   92.333450   69.752502    1.495301
H    3.508163   44.090008   39.005302
H   13.236576   83.795815   82.637611
H   64.461983   53.333519   18.889767
H   23.929165    7.879927   59.948730
H   68.928474   38.616421    1.886701
H   48.706318   58.890381   60.195702
H   52.795589   67.986404   27.091587
H    6.513466   59.195614   86.389061
H   54.583572   68.903046   69.854271
H   24.273544   53.249146   31.338882
H   93.563850   38.472435   34.819839
H   77.577293   19.420137   94.322159
H   82.658028   38.638596   87.527504
H   15.054317   22.570595   41.185860
H   66.740273   55.487404   36.954372
H   50.001801   78.695091   94.981308
H   61.291740   75.476967   30.815557
H   65.723129   19.966118   32.236290
H   87.771248   41.150566   63.156502
H    1.680145   61.758221   60.126198
H   56.666447   63.352806   19.763800
H   69.812172   41.012253   80.897125
H    9.134361   36.940346   45.097008
H   72.790642   26.179893   97.720467
H   41.982361   51.696411   52.473484
H   78.636665   32.606304    9.638358
H   53.653767   30.988817   75.263535
H   12.914162   65.854858   81.227280
H   63.412064   93.077156    5.000614
H   18.382599   68.677185   32.421917
H   70.703094    4.902985    0.158031
H   38.499584   28.526022   55.771507
H   57.784081   59.493412   46.904362
H   89.006981   94.600082   11.209494
H   95.672165    0.300324   91.735924
H   56.609005   66.478943   95.758347
H   66.838142   60.659649   69.072525
H   70.690186   35.816730    0.803716
H   43.027531    3.106537   26.204857
H   40.661663   23.099098   20.831825
H   52.083179   62.040466    1.894581
H   16.812630   94.556198   36.469986
H   91.087814   63.639519   59.072086
H    2.194683    5.271385   57.598343
H   33.935383   90.334236   12.615387
H   11.969827   24.890070   35.725204
H   34.780678   30.483562   81.464058
H    3.426973   58.453579   67.244408
H   95.209831   57.502182   76.105240
H   53.881477   63.680618   82.970093
H   42.773258   36.166908   60.042450
H   17.124580   79.372101   39.696873
H    6.353513    9.432861   38.508808
H   77.223877   99.055168   54.402206
H   33.648117   87.051361    0.386516
H    3.459164   12.384246   96.253723
H    0.995154   53.708923   27.225628
H   70.256554   95.392509   87.195282
H    2.798469   25.653580   79.332039
H    4.720956   22.383755   62.110512
H   56.837631   76.808197   84.730042
H   78.223564   12.465691   92.941833
H   95.041130   38.484615   24.768375
H   88.871620   50.055126   31.378176
H   93.813080   28.241863   13.184908
H   56.342800   99.284126   95.720863
H   92.585716   33.239498   94.707726
H   60.946274   32.926613   26.135307
H   45.973625    0.706873   92.625397
H   59.366417   89.244217    9.416126
H   54.569687   22.577307   87.445267
H   25.134182    2.949068   32.843357
H   16.161879   17.035324   78.487053
H   92.393723   62.652000   21.218094
H   28.257341    1.375443   52.752754
H   67.064323   52.609509   23.994125
H   98.959579    9.768911   71.724983
H   55.933094   25.226376   71.016510
H    6.562852   46.227341   79.261642
H   89.124985   14.726295   65.071068
H   28.013065   34.673809   52.901497
H   14.511920   32.030479   92.325165
H   37.227211   31.311409   74.733063
H   64.163681   23.100134   10.848457
H   14.595491   63.886108   40.134216
H   24.951006   28.069656   40.283699
H   79.822502   66.615349   66.755852
H   68.043877    1.467794   32.656231
