100
TIME:    8.606, STEP:  8606
H   35.333000   32.809715   91.266983
H   62.799576   71.211746   20.740433
H   27.700151   93.054489   22.318748
H   82.921097   78.082878   68.439888
H   18.081964   62.566105   32.360291
H   94.561279   91.884575   31.026672
H    1.930451   42.456787   63.453571
H   43.471664   33.130207   18.018967
H   42.075966   58.860870   58.371311
H   39.699623   39.954411   44.680428
H   99.745880   12.523532   10.776388
H   27.374008   55.064861   80.344795
H   94.973495   41.076820   69.865891
H   28.963209   78.549782   12.159878
H   85.134468    1.302490   37.038002
H   55.494873   59.016747   18.667629
H   32.063789   51.189884   56.826485
H   85.096390   76.071068    1.201073
H   79.305939   39.386181   16.759922
H   60.652424   23.056112    2.269117
H   53.584480   99.462067   23.662992
H   87.445946   55.508575   86.397903
H   70.839699   24.633638   86.122025
H   19.436064   39.780975   67.918686
H   21.784363    3.660591    0.097160
H    7.028950   72.398605   81.019531
H   19.973577   84.736038   70.726364
H    6.392874   58.138691   51.242378
H   98.299644   29.895350   50.361412
H   30.984558   77.840805   67.540924
H   54.757313   93.772652   28.499748
H    9.145399   14.738617    2.563556
H   76.552505   38.826027   73.093399
H   41.726547   85.034210    9.194754
H   66.776131    8.075005   48.649288
H   20.742304   59.490799   92.370552
H    5.226755   89.364021   86.584557
H    8.291143    1.456189   29.742752
H   81.810356   93.908409   10.327202
H   52.603905    6.518012   15.136353
H   47.092056   51.473457   45.098110
H   74.947052   75.351593   19.312790
H   85.350433   15.112621   23.093853
H   29.821995   57.097855   22.183872
H   10.149399   92.348228   92.549492
H   67.035973   27.058067   18.124128
H    8.974870   92.861153    8.076122
H   56.712887   84.009003    1.068068
H   16.593460   19.701599    1.176002
H    6.423780   61.722263   81.801445
H   42.910664   38.790077   44.148346
H   23.380651   65.166962    9.105773
H   87.381416   71.909241    3.048979
H   77.395020   66.793777   11.575564
H   55.572517   12.793248   73.542053
H    4.314522    3.481047   99.658234
H   41.834442   41.224098   74.489632
H   85.235535   64.156746   91.883446
H   69.013512    2.402082   50.803772
H   91.111977   89.273605   18.835472
H    2.573249   78.351685   43.404095
H   93.474144   47.838638    5.959667
H   58.323063   20.024996   43.331207
H   33.998135   88.643555   93.485123
H   73.911331   73.497772   97.007828
H   72.668770   14.443473   55.038242
H   97.092545   45.893154   82.559433
H   85.890366    9.723378   77.619171
H   85.823853   31.414055   20.478897
H    4.808245   80.901016   83.590424
H   48.750050    9.847583   58.919258
H   64.583008   65.847069   86.862228
H   45.864182   92.623466   41.092724
H   40.756252    4.746639   91.814796
H   77.031036   40.987095   53.814320
H   29.108210   59.137962   16.855082
H   48.391434   80.929443   43.371521
H   36.302067   87.999901   89.723450
H   74.201210   28.240185   13.699194
H   77.479210   40.210258   79.506676
H   79.292030   18.315378   94.351807
H   87.083481    0.281950   67.025063
H   62.224236   51.040928   49.535610
H   42.228142   48.593483   77.391777
H   33.290146   10.564421   13.498352
H   53.226696   25.165794   39.410065
H   41.930134   77.625847   33.910561
H   94.437187   16.413136    6.347046
H   34.284916   15.004206   57.804817
H    5.452346   55.203705   31.861246
H   76.215660   38.129436   15.205100
H   15.055750   42.732544   97.508171
H   37.114597   85.739189   84.519775
H   79.001694   35.288929    7.087992
H    7.797352   78.856857   13.843420
H    4.741920   55.890198   22.938057
H   79.498680   61.559410   42.249962
H   21.665743   12.285542    6.114641
H   98.743217   73.964989   24.194561
H   73.762222   57.787601   68.697617
