100
TIME:    4.390, STEP:  4390
H   20.444408   19.435852   95.126846
H   79.234566   42.752014   54.910278
H   55.214806   89.738579   71.813271
H   82.213455   51.782646   99.531380
H   55.850220   24.635363   46.673141
H   59.949184   96.452080   13.502262
H   22.890842   57.772625   33.756725
H   74.840950   68.391815    5.118036
H   45.713356   64.212784   23.751734
H   54.873009   79.417259   79.598022
H   91.907928   42.883595   16.882812
H   88.286064   43.738548   80.444283
H   63.932144   96.117592   88.809570
H   37.713493   91.544655   91.320541
H   33.900612   77.895020   39.749119
H   25.012337   27.763725   68.632751
H   71.089424   72.334183   73.027367
H   94.946907   81.214775   47.346630
H   13.644104   62.521400   94.645416
H   74.241997   12.589556   15.224192
H    3.767885   19.178692   38.091545
H   83.253922   49.911774   45.429214
H   27.131203   58.918633    6.746409
H   11.162971   89.332825   81.033676
H   72.572662   38.010880   68.960976
H   26.534224   96.874664   77.602272
H   83.524529   59.991894   87.072548
H   62.125385   61.350067   11.880466
H    6.627069   47.386929   49.654152
H   69.325394   82.187004   32.380501
H   88.829231   15.715594   62.056114
H   42.944408   31.220840   92.859779
H   79.583473   47.288719   93.282822
H   63.589508   71.405457   86.807976
H   71.647568   27.069908   92.049332
H   54.252705   29.272724    5.626409
H    0.857552   43.765121   54.380116
H   82.544930   78.613747   32.231564
H   59.771267   85.767570   18.888601
H   49.704094    1.205659   83.430725
H   35.225815    6.816859   45.772198
H   37.072952    8.882827    9.047529
H   49.054478   89.825470   18.568460
H   99.028366   86.341583    9.966046
H   75.855064   58.682426   31.775278
H   21.450665   46.649342    0.993645
H   76.031540   63.581017   67.607109
H   56.473866   40.585541   40.206230
H   93.355698   68.868988   69.357025
H   17.949047   97.551186   76.621437
H   43.209690   45.817574   99.704269
H   18.478212   56.380810   85.866455
H   99.933174   47.463440   47.905422
H   75.028465   35.578453   25.534458
H   91.256287   43.317478   37.686054
H   99.059097    7.915869   43.180847
H   74.557938   62.875114   73.512947
H   99.167374   62.306358    0.477937
H   36.506409   24.257420   74.461189
H   69.322968   65.219269   38.748543
H   36.625671   74.415672   72.116127
H   43.104942   87.080582   96.719513
H   72.098457    7.717067   32.434990
H   44.493233   65.677368    7.949436
H    6.568212   10.221619    4.390338
H   31.660347   24.032784    5.754682
H   35.351028    0.137498   79.011154
H   77.118370   68.605972   76.069984
H   75.700027   34.348923   84.899475
H   19.328119   68.948242   92.489044
H   82.629723   96.703918    9.485962
H   11.991941    5.829342   78.037651
H   20.755369    1.160503   49.190407
H   33.568844   71.572685   42.314720
H   73.829720   34.897900   34.190273
H   29.439905   88.930626    0.538878
H   65.539474   46.050709   68.688240
H   38.230511   63.670620   56.884491
H   72.028023   40.623913   66.666130
H   84.231232   69.866295   42.718742
H   96.778610   74.698227   42.368511
H   70.712929   72.897598   19.688524
H   95.550911   80.535583   48.025883
H   52.174286   87.820625   62.457237
H   38.573257   74.288490   22.191025
H   50.257832   70.308357   46.638199
H   60.352898   84.164154   32.875763
H   26.619181   53.820168   50.088890
H   46.789169   49.743736   92.286263
H   78.204025   28.659050   81.148529
H    3.679518   10.479614   26.170572
H    3.112234   25.651199   17.176188
H   66.861031   59.240204   58.489971
H   71.538620   79.519333   22.814173
H   80.689766   56.500999   16.964504
H   56.517593   22.374962   40.699852
H   14.145009   19.613506   84.715836
H   22.980062   53.615906   85.787636
H   99.583801   55.773861   77.328789
H   11.891554   65.976021   74.838089
