100
TIME:    3.125, STEP:  3125
H    5.991602   35.442833   96.284988
H   14.342651   74.178314   75.124069
H   33.470688   98.729584   86.656792
H   82.001129    3.899397   68.872620
H   67.180710   23.240032   80.973450
H   79.562386   97.822548   88.225121
H   89.189156   72.353462   34.832008
H   74.267456   58.953190   21.266491
H   76.809471   85.837311    3.378683
H   89.443550   61.253731   30.061533
H    9.575134   91.983856   38.733707
H   36.568565   80.330872   70.488197
H   44.480774   72.640488   14.529669
H    0.349665   95.443733   95.053246
H   18.512394   90.889969    0.555485
H   75.874741   38.405243   73.639015
H   72.813210   88.665359   57.869427
H   67.923424   42.731987   91.205261
H   93.940193    9.449542   27.999552
H    8.327614   39.452290   29.097132
H   78.834793   45.114182   72.423172
H   61.977142   48.232468   53.155655
H   44.020775   69.206795   42.941101
H   28.695175   74.161163   74.984550
H   17.816326   38.331482   59.618629
H   32.330029   34.495075   96.265343
H   92.606476   12.573865   61.978695
H   68.862602    2.304140   70.069481
H   79.120697   32.616074    9.452253
H   20.819656   13.496465   31.816628
H   39.043583    2.280852   62.138893
H   63.071602   66.168373    9.967125
H   90.478119   39.842003   79.321632
H   10.139543   87.335213   40.099060
H    3.091438   22.694244   15.019714
H   44.261135   29.969660    9.897779
H   79.526802   90.090805   54.703060
H   34.829338    1.757956   42.963543
H   13.164306   13.329016   41.476227
H   68.852539   19.630976   83.903053
H   21.680017   63.407330   15.969346
H   50.763969   52.111244   49.616028
H   38.158291   82.239639   27.195976
H   79.806961   65.147583   86.279747
H   85.584801    8.596035   23.525801
H   37.770817   22.521381   95.857674
H   66.148727   94.785248   55.459137
H   56.406307   27.558088   61.935219
H   56.374352   73.636406   19.816031
H   91.421074   78.306725   65.096588
H   43.306202   67.944901   86.366333
H   57.001621   73.763168   68.912590
H   73.701256   40.128540   21.373783
H    4.328037   56.222336   69.714203
H   91.975754   32.451172   26.927259
H   97.476303    9.247656   86.244431
H   94.363823   99.375893   53.200981
H   93.362541   81.769760   33.063919
H   36.738625   70.807526   71.576180
H   52.800064   67.986893   74.728157
H   56.828224   33.245228   70.745346
H   88.002251   98.855026   53.959595
H   86.216805   94.038383   19.179855
H   57.628616   58.793724   42.298000
H   56.360508   11.255025   86.586494
H    9.371490   86.919899   30.958260
H   36.844337   56.400021   17.937346
H   64.500633   96.258667   15.595672
H   12.650763   25.243752   64.239540
H   93.698303    5.320403   95.152771
H   22.799728   82.774529   24.662449
H   16.296904   47.812515   85.419861
H    3.235212   63.729130   81.622795
H   61.421001   51.624023   17.480507
H   12.840943   33.093128   38.294590
H   99.532082    7.855431   85.656555
H   50.685169   55.693253   46.316792
H   78.798508   46.384945   87.021820
H   11.368871   44.339619   52.548271
H   46.269508   38.759663   51.699631
H   72.032974   61.611217   66.762695
H   75.797058   64.636185   25.467207
H   15.517462   59.418671   27.540592
H   65.143921   79.571869   77.996002
H    0.167121   53.414951   44.818672
H   79.370361   23.840065   58.792706
H   75.866402   76.139961   72.555344
H    6.260008   55.099289   63.243454
H   20.535843   20.177210    2.633202
H   90.046417   80.704788   35.929070
H   51.910492   42.172466   99.456009
H    9.510160   30.523516   93.069954
H   85.773239   21.282095   60.665489
H   49.271458    2.786488   37.521408
H    2.559802   69.811920   87.896629
H   52.033783   72.328560    6.038588
H   14.554744   47.017834   57.468056
H   18.337843   42.845184    6.033686
H   59.845634   50.320942   83.285316
H   33.316601   98.442604   96.698059
