100
TIME:    5.341, STEP:  5341
H   56.132240   32.224342   94.256180
H   52.969460   94.283951   14.872264
H   71.564926   58.156784   60.652050
H   82.373077   12.600857   47.405167
H   47.332199    0.862205   20.888466
H   45.198643   95.421791    7.683016
H   73.047295   21.987125    8.126237
H    0.094225   50.665623   17.800533
H   22.335960   72.777985   63.891472
H   28.884050   93.072212   16.836645
H    3.448215   81.149384   25.277676
H   51.991379   91.407539   12.750994
H    3.246695   38.610069   94.313164
H   90.626823   88.613411   63.693794
H   45.465965   92.948105   94.034851
H   86.773331   44.585709   89.691132
H   94.615578   35.236217   59.600647
H   15.281327   34.943409   14.379332
H   28.456318    2.413094   44.745907
H   48.619736   92.392372   79.972755
H   47.334206   24.503777   12.280766
H   74.427216   51.174240   64.442795
H   14.433759   51.184212   79.537628
H   22.801743    0.722139   10.403569
H   38.558624   62.592850   75.984352
H   22.199030   68.766647   88.174271
H    1.518060   20.457439    5.938984
H   81.883492    5.739510   43.318542
H   27.306221   33.668949    4.700876
H    5.791474   58.649986    7.983070
H   26.256660    0.993896   86.816017
H    2.991319    4.947820    4.820918
H   46.570492   77.709526   78.956413
H    3.770946   84.252007   46.742805
H   48.008972   55.181473   49.956917
H   36.921253    3.758382    2.634775
H   92.070526    8.936058   29.315105
H   43.238171   61.213764   99.342003
H   19.626286   65.045708   26.729441
H   60.130085   12.176443   58.254101
H   70.232239   39.445122   68.177345
H   51.601830   51.565681   53.720913
H   57.245998   95.528336   87.259956
H   38.302448    2.291264    2.951186
H   93.363640   21.163956   13.154170
H    9.180452   64.788223    4.859568
H   83.461227   15.299565   76.734596
H   56.524654   50.380539   99.048775
H   21.153709   90.108521   31.418812
H   37.894566   12.024786   10.108398
H   43.137135   54.004547    9.729690
H   64.695030   68.135361   23.434952
H   19.659801   52.977661   92.671928
H   53.004227   20.058823   67.500023
H   15.536533   26.664396   45.775997
H    0.247909    6.915509   10.806564
H   34.847878   35.434608   63.960991
H   28.353352   72.496056   75.983139
H   11.510632   64.439552    1.451174
H    6.568792   38.315441   11.699837
H   96.614594   30.191216   97.970238
H    9.354540   78.228806   53.692337
H   36.660725   42.823166   67.222046
H    9.796039   70.857834   82.131943
H   44.316452   34.267056   92.952766
H   73.239952   76.756187   61.984932
H   59.050171   33.015263   24.926151
H   11.426455   22.995039   21.533285
H   23.096350   66.016136   25.254105
H   38.594002   16.778591   90.486511
H   52.432106   31.998886   98.077736
H   33.577492   74.267502   47.665276
H   58.748276   54.117195   24.804489
H   12.634083   11.387531   85.809807
H   19.682791   36.254688    6.281703
H   51.924866   49.881432   36.548054
H   51.883648   63.624912   85.506615
H   82.910217    1.484969    9.402253
H   17.634151   37.830524   77.273750
H   37.593842   18.068726   60.789307
H   15.386719   84.536758   99.208519
H   42.068085   79.108047   40.166428
H   55.706100   96.439758   38.593761
H   17.602587   69.199997   75.598694
H   92.266304   14.801490   30.002251
H   28.367825    5.237140   12.678575
H   23.868048   15.018723   78.222977
H   41.926964   77.681885   40.199852
H   66.524277   96.794380   84.508308
H   94.122192   89.531784   15.145838
H   42.598412   61.828693   46.253948
H   73.478813   97.173950   35.294556
H   27.821733   87.776955   32.032307
H   63.454124   37.205395   86.934624
H   64.248680   71.316063   38.815739
H   35.066315   84.821747   91.579163
H   38.658562   74.189781   30.023468
H   26.469984   61.713104   70.565483
H   54.280121   59.873249   97.671501
H   70.960007   41.575008   83.225342
