100
TIME:    3.940, STEP:  3940
H   50.875885   60.703247   95.538834
H   91.671257   18.364542   26.533674
H   47.479744   57.363243   77.093575
H   82.137924   70.322075   24.197821
H   59.880829   88.565880   58.874832
H   66.927498   96.939598   68.938194
H   46.474346   27.385128   98.566063
H   10.210068   29.462063   46.436703
H   56.775215    7.478453   52.078793
H   67.170830   72.955925   61.978302
H   33.765823   24.776752   60.227909
H    5.460129   21.182245   12.475710
H   92.639236   23.332092   33.525253
H   59.995140   92.931679   57.076839
H   28.426926   18.090729   61.381886
H   43.106110   67.122246    5.986475
H    7.275750   42.570576   32.062096
H   85.333702    3.098322   62.950634
H    6.635254   43.642082   70.935547
H   86.368156   22.145945   84.586174
H   30.471527   63.978878   50.303535
H   40.111984   49.314392   83.750900
H   33.139351   62.578453   19.622112
H   52.972816   83.935791   14.453909
H   88.667633   73.698349   65.637611
H   28.590200   10.211535   19.874628
H   22.327871   78.696854   78.146156
H    0.096697   40.345581   97.005669
H   96.841873    6.559856   70.926430
H   52.069992   93.324394   96.607727
H   71.120644   75.362434   97.658684
H   14.531064   43.652557   34.518501
H   47.886173   80.213371   52.743271
H   44.576294   12.645189    5.765830
H   82.833023   61.086327   64.645309
H   15.130449   93.992950    7.086752
H   57.695557   60.244614   18.921743
H    1.145987   86.846626    0.477324
H   78.764648   95.572868   62.496941
H   92.089561   43.333839   48.025730
H   65.980667   91.375565   35.170391
H   77.516373   88.687286   87.906204
H   45.178364   87.126953   86.063957
H   27.762918   78.802216   65.966187
H   14.890203   76.438049   93.266785
H   27.256252   38.066273   99.165627
H   72.515915   39.108971   63.287544
H   56.449833   35.950684   12.362755
H   80.199570    6.139581   87.305939
H    8.511104   90.705330    8.096462
H   43.244022   89.261635   94.959549
H   96.610001   98.136353   15.407642
H   90.601662   44.854187   74.041267
H   85.451744   42.922127    5.678385
H   27.085159    3.879990   33.858006
H   98.496048    8.389578   58.499908
H   46.029980   75.859581   30.714331
H   32.675285    4.802990   12.069437
H    1.017131    5.242913    9.006779
H   99.020386   30.629622   51.547615
H    8.238544   95.344627    7.203173
H   59.076317   91.269119   17.080894
H   41.547077   38.424980   63.292839
H   13.591776   63.227127   20.168293
H   88.707787   46.163036   62.484180
H   59.304695   46.403694   79.147354
H   71.454849   84.578125   57.285686
H    8.203039   42.870499   54.557384
H   53.272545   66.683060   13.121834
H   10.211184   46.313721   93.436615
H   96.918816   27.322529   14.884712
H   49.095665   20.764404   45.090427
H   50.096390   23.418118   60.729485
H   43.477139    0.047882   69.052696
H   52.133602   34.255886    0.076213
H   18.800333   60.091049   30.817875
H   24.681070   85.053757   60.730015
H   17.088696   93.093422   32.031357
H   50.448914   41.945705   61.645142
H    6.300139   94.372673   81.486748
H   87.975815   70.042770   15.473645
H   36.947815   69.958755   57.317261
H   67.082588   73.023560    5.165506
H   21.216276   49.313545    3.559461
H   60.484116    2.434327   65.813614
H   60.615879   53.778679   15.388946
H   30.298422   16.882835   11.417906
H   19.376787   89.848457   54.768379
H   37.450790   74.799431   95.966682
H   17.989370   47.174446   65.060425
H   85.263611   86.180077   16.667398
H   69.816528   91.811089    8.601231
H   38.015053   45.737320   23.690775
H   28.043652   52.223694   92.472710
H   88.469460   96.807732    6.624560
H   19.349472   40.144417   63.942802
H   49.863495   93.789299   10.595858
H   21.328680   49.784424   92.990547
H   21.020714   53.834087   15.020126
H   83.939430   77.525398   18.187056
