100
TIME:    6.703, STEP:  6703
H   64.025711    7.323631   93.009232
H   15.355488   68.091087    0.750391
H   94.986771   56.144463   44.659939
H   82.601685   56.487030   72.749634
H   35.132889   10.032347   83.959885
H   24.073261   93.946236   42.566875
H    1.666780   13.955597   14.636484
H   93.043709   68.495697   92.746269
H   88.855339   41.827332   78.157494
H   91.676704   12.629696   70.167305
H   76.758301   35.952152   94.082771
H    0.004069   59.677357   15.802238
H   16.334427   56.246128   58.977715
H   23.188385   84.415352   67.342400
H   62.020638   71.287834   28.555470
H   32.011520   25.460243   76.633301
H   85.091652   25.322437   83.588875
H   44.407894   68.671097   67.163124
H   49.665699   59.554367   16.502712
H   11.928284   63.463367   72.704033
H   66.511200   88.912262   75.310493
H    5.003479   52.982315   48.455902
H   96.247490   40.107155   40.570496
H   96.252357   17.015596    9.249947
H   89.847115   54.579414   86.043068
H   15.990267   28.501839   60.096199
H   84.071983   63.843491   32.965717
H   66.961136   69.313087   88.338150
H   56.921242   57.240490   40.317078
H   58.015720   24.940819   16.257889
H   79.861412   23.126865   79.058983
H   88.988861   67.311966   78.733788
H   42.507565   78.059151    1.656131
H   61.319603   59.432755   89.365158
H   14.137049   52.158882   32.867279
H   55.317852   10.436267   98.352272
H   22.704258   59.057251   36.635410
H   86.945213   36.285191   95.454338
H   62.138668   35.368340   94.742157
H   31.846088   84.671005   65.413742
H   77.149231   86.179436    0.265462
H   35.321732   67.888962   22.160477
H   68.973297    3.697240   85.638786
H   51.333515   25.152304   36.119598
H   75.219521   67.423843   29.704432
H   91.601677   90.766312   10.392900
H   94.101852   89.369461   89.806770
H   56.597393   64.408707   83.321594
H   60.962532   77.307106   77.089706
H   66.469971   32.757381   14.857839
H   43.041332   22.512274   24.086315
H   30.891594   41.751160   34.026131
H   47.913570   60.875000   13.568430
H   21.466827   97.834839   27.600555
H    7.091766   46.024109   57.362225
H    1.944338    5.482818   64.440857
H   21.193460   96.133965   93.498436
H   26.936205   43.872124   40.902328
H   18.928802   21.989460   96.894218
H   16.690651   43.003483   72.961327
H   82.530785   66.849380   91.777695
H   61.015358   65.551498   92.063797
H   29.126730   49.882607   73.825623
H    3.322174   78.277176   45.154629
H   98.375443   25.486393   19.790304
H   89.571686    9.047165   42.517517
H   49.774490   80.101501   90.682449
H   17.343895    0.888394   86.644760
H   90.978157   68.151505   39.832600
H   66.183556   85.283623   87.618530
H    9.181452   39.329407   81.742714
H   21.274408   29.065628   47.384567
H   69.942993   86.748779   89.882629
H   82.649269   25.186909    4.884557
H   85.349358   38.197849    9.530670
H   84.120811   37.172123   44.902222
H   75.558197   45.639515    9.620268
H   46.899456   12.427107   84.621330
H   82.946083   33.829899   92.465736
H   70.803665   43.875862   43.451683
H   42.040176   98.627274   80.611893
H   44.284363   87.940735   26.231812
H   41.855370   19.215857   68.304016
H   11.305772   85.749168   51.200985
H   25.948965   29.608559   97.971809
H   97.018784   55.268158    7.259862
H   14.833010   15.990088   43.168327
H   63.831688   68.694031   26.078163
H   94.788437   20.959902   73.368904
H   73.704086   33.496586   63.830528
H   98.336998   35.374702   75.016891
H   74.253021   99.609436   61.241470
H   15.128554   28.642521   37.357857
H   95.086220   19.836023   78.772018
H   40.702141   49.316330   70.114136
H   47.561920   31.036806   21.230499
H   30.549379   52.351059   51.693802
H   25.338984   18.124088   44.318359
H   89.397728   65.747383   83.590706
H   55.559086    6.625563   52.019840
