100
TIME:    9.352, STEP:  9352
H   84.884674   64.398628   90.584000
H   42.196243   11.634344   67.779778
H   40.523167   46.723930   13.561935
H   83.046310   47.348625   27.547186
H   11.397264   22.361023   12.135122
H   82.996094   91.076378    4.905417
H   62.829998   92.829247   21.791759
H   84.837540   97.669418   49.524742
H   23.737862   87.135208   11.411760
H   19.322180   50.665867   73.889351
H   30.354767   42.538971   38.915520
H   98.899513   92.458199   27.243092
H   47.403702   95.924919   95.731796
H   92.026810   76.250404   68.932381
H   94.195381   34.666084    1.164163
H   25.499901   93.768723   56.743225
H   72.074776    0.533908   24.737806
H    1.053792   39.770500   75.338943
H   90.928040   70.682678   56.059925
H   40.555637    7.213743   53.060234
H    9.315557   25.196291    3.414591
H   58.965694   56.498901   22.869064
H   60.879524   18.569315   64.778793
H   50.122669   48.705292   12.512970
H   95.103989   44.500610    5.603904
H    3.510113   50.406540   10.816767
H   55.646286   53.726704   85.524338
H   43.446869   92.959457   75.901024
H   14.521504   97.578911   15.098068
H   59.590080   59.377487   26.845440
H   84.116005   60.666805   69.478622
H   56.248280   94.127228   33.502571
H   29.099411   84.245850   40.298973
H   73.246231   16.667572   77.766823
H   48.210365   51.592354   94.035461
H   85.591080   17.921366   90.025642
H   76.777008   62.044685   45.366291
H   77.455559   87.807411   82.385689
H   50.322346   77.653404   38.033798
H   82.339279   36.680336   73.831314
H   96.109024   77.071167   62.673550
H   12.078341   78.277039   57.395756
H   91.770477   19.588726   76.976921
H   82.191811   69.622353   95.123238
H   45.438889   62.922817   56.389538
H   57.409805   41.285900   21.154867
H   14.807263   33.432842   15.240334
H   56.758419   91.692566   47.225925
H   38.397705   57.916676   71.420532
H   22.082045   73.081413   29.640659
H   43.354847   66.806602   51.253799
H   59.636364   95.942581   60.135506
H    2.851732   76.234802   59.724411
H   60.116821   54.620903   44.493599
H   96.174294   78.169830   79.882416
H    5.243664    2.696327   74.262634
H   89.128372   19.698738   45.440529
H   29.686338   93.705788   72.668846
H   27.851257   33.924911   93.532158
H   41.882816   46.614605   97.617470
H   49.634312   43.659466   85.243797
H   66.997154   40.894974   72.208183
H    8.967513   69.119286   92.175751
H   85.225220   92.707306   73.234665
H    3.519028   13.914066   66.479683
H   26.840904   77.358025   99.147591
H   37.240433   71.683167   18.576771
H   34.359268   52.388557   13.282288
H   23.003946   77.811264   73.692505
H   19.959244   18.371851   82.008179
H   25.057053   59.089237   49.972176
H    3.153246   41.077538   41.543446
H   97.224030   55.720875   21.963497
H   24.336193   57.530849   47.489174
H   12.966329   42.085560   10.376490
H   46.746254    6.947821   66.657120
H   16.143810   16.360546   56.604324
H   71.346001   39.223503   30.925980
H    9.976848   26.048946   22.025507
H   40.894066   99.570930   15.237955
H   93.896492   26.033091   38.939720
H   43.062302    5.124729    4.615969
H    9.407896   63.516758   20.579990
H   93.551933   12.429947    9.257233
H   96.966812   63.894897   41.182068
H   36.055355   52.569794   91.214355
H   91.753777   23.385582   69.482613
H    6.434457   56.719887   98.613373
H   49.765873   73.467979   51.703499
H   39.496464   24.509293   58.526070
H    6.745287   78.410416   30.959251
H   70.252197   98.839630   11.721223
H   84.934814    8.120291   42.209099
H   50.603737   80.509506   58.148785
H   94.899033   12.033886   30.983637
H   66.358444   26.431387   84.405823
H   20.284584    4.370941   99.345627
H   20.225786   49.196621   91.135704
H   63.205315   77.186394   61.710567
H   20.100670   38.646992   96.831604
