100
TIME:    2.299, STEP:  2299
H   61.850250   11.191278   97.041214
H   37.319420   29.392473   23.020132
H   19.272551   39.302856   96.349083
H   81.862488   37.932152   14.146698
H   74.579117   57.032505    3.370090
H   92.367805   98.717415    6.423084
H   32.480228   16.576469   70.237648
H   39.189430   87.494781   97.106865
H   97.114128   65.253906   55.374142
H   12.015203   49.393593   97.714592
H   86.407654   58.747746   18.298502
H   68.096054   38.927521   29.283251
H   97.023506   22.614876   96.627403
H   41.248268   97.989693   32.195110
H    8.464046   64.671265   40.261627
H    9.086357   10.650220   42.204849
H   39.231277   34.033546   82.671677
H   50.273262   82.900169   19.843189
H   81.071754   74.800262   84.482712
H   30.579552   56.990421   72.859261
H   27.850708   27.344601   94.845261
H   82.787720   47.135941   23.497162
H   55.049065   75.924599   66.573151
H    5.439526   64.254608   36.330452
H   47.358025    3.842987   53.524254
H   36.117458   59.103916   73.686058
H   63.834572   46.911182   45.587505
H   38.558990   63.749264   42.764835
H   61.160339   57.675148   48.496880
H   89.147728   33.939957   66.152489
H    6.538662   28.209536   27.492226
H   10.917397   88.993782   86.434135
H   32.295727    0.277020    4.909031
H   75.239265   63.033127   74.898041
H   23.625294   85.133270   64.719978
H   72.443527   65.083977   12.736775
H    0.303452   20.341902   89.617615
H   68.967537   16.875843   84.675468
H   48.032478   31.324034   21.521921
H   46.653042   96.958153   18.914328
H   78.129402   35.067776   96.507980
H   25.000183   15.037326   10.810564
H   31.043470   77.286362   67.531487
H   32.551903   51.302872    5.518386
H   57.233547   41.183414   52.842873
H   48.427296    6.766682   92.505074
H   59.691402   49.865448   47.525070
H   56.362194   19.053701   10.826973
H   32.231850   42.045811   52.767395
H   74.103508   65.740776   22.869808
H   43.369221   47.690132   77.657135
H   16.859835   50.409542   23.136562
H   56.570015   35.339111   69.348595
H   23.454243   69.699394   33.264130
H   57.737846   60.048557   19.913954
H   96.442795   10.115810   14.363419
H   41.997852   23.210594   74.641441
H   54.868500   59.775482   54.339066
H   71.593315   35.907711   34.987579
H    7.309309    4.495848   98.221565
H    4.722972   71.656441   35.147503
H   17.316734    6.544647   91.331436
H   30.172134   50.378960   75.837814
H    0.907041   54.300484   64.726189
H   23.572636   77.227264    9.662213
H   60.114021   27.982826   82.120171
H    3.115040   27.845743   78.057755
H   21.558296   49.019775   76.108093
H   71.485313   84.594856   16.042480
H   76.960510   63.777870   96.892090
H   49.029259   38.976067   34.572971
H   84.403931   75.225693   24.943323
H   57.092697    4.589771    2.797901
H   79.596519    3.893604   66.572151
H   73.014427   31.914904   75.677597
H   80.008858   54.917976   41.235912
H   75.689819   27.284555   31.708971
H   39.991528    0.394139   41.405689
H   71.756729   46.765842   43.328621
H   86.777992   83.746017   22.860176
H   55.871784   53.065868   17.394703
H   13.819323   59.241776   94.536110
H   63.260761   45.630157   48.868229
H    8.319957    8.889986   53.441589
H   40.387711    5.079557   24.890060
H   98.376831   93.500298    1.432668
H   20.699743   36.196899   33.168594
H   92.964523   21.230850   71.838661
H    3.392508   66.167519    9.391018
H   63.076992   14.687248    6.402501
H   18.107208   97.571564   82.012405
H   48.392193   68.409477   77.327858
H   32.791676   96.519699   96.771774
H   69.435616   52.684925   81.827934
H   16.842712   43.799637   68.915367
H   83.809540    4.946836   48.702682
H   80.118698   99.615593    4.971745
H   15.306279   35.812286   19.250690
H   99.194572   46.760380   52.473328
H   82.016983   19.651421   76.259064
