100
TIME:    7.007, STEP:  7007
H   43.467117   79.445442   92.730911
H    6.960615   84.563011   19.918629
H    0.214473   78.015800   41.090481
H   82.652710   43.962616   56.086422
H   32.409988   34.399288   75.716965
H   19.358051   93.616890   72.673508
H   85.733093   34.483982   38.409679
H   69.149910   94.796967   64.835381
H   81.382439   12.598992   59.022366
H   83.373482   16.995134   82.070137
H   48.480957   48.184330   64.798836
H   88.402740   74.915390   94.163597
H   96.936485   37.859707   28.770386
H    8.136751   83.478340   90.475456
H   65.713020   44.133049   13.936695
H   19.787460   98.871033   51.398926
H   60.645851   45.428761   11.263207
H   50.908993   53.878372   56.625687
H   54.399464   72.306885   32.517727
H    3.738708   57.008656   93.401787
H   48.471405   58.649155   67.058296
H   34.148254   53.385880   22.567474
H   92.188652   37.634743   31.872969
H   68.007484   20.652315   86.672913
H   78.974068   30.469917   88.288185
H   14.568676   19.534550   31.492697
H   57.858303   51.205429   38.998310
H   41.311333   83.502785   98.385513
H   63.531349   84.822029   25.946962
H   69.672699   17.416893   40.424614
H   91.824547   50.386398   55.007469
H    8.183552   58.912739   50.590965
H   63.921993   55.816719   29.042852
H   74.164085   31.572891   76.557785
H    6.570850   29.141792   51.363983
H   81.744362   34.247482   97.396706
H   51.861000   47.924438   60.589512
H   74.379051   30.721104   16.906479
H   49.305782   28.744886   65.281952
H    3.212731   56.212116   89.330734
H   56.372620   96.611809    7.427053
H    9.702204   69.081100   37.679890
H   71.589508    5.520842    7.597658
H   31.922993   30.254843   65.842033
H   48.850006   55.429897   55.718208
H   87.677361   96.564651   11.627947
H   96.476852    5.902023   92.724495
H   56.615292   67.539810    2.131360
H   69.849434   52.129490   64.964218
H   72.852783   37.384457   93.602333
H   43.020458   93.162567   27.290478
H   45.668171   13.541077   14.070621
H   54.219845   62.637695   95.912727
H   14.427643   92.876099   41.015213
H   82.886917   72.665565   59.948284
H    2.322969    5.163039   54.091980
H   40.464825   87.362236   22.411583
H    4.300345   15.162703   33.072250
H   42.903778   34.836262   73.557060
H   96.629860   66.370560   64.314842
H    1.707107   52.712563   68.074081
H   50.225807   62.721909   78.310135
H   49.766338   29.138306   52.979431
H   24.197422   79.933182   36.900112
H   10.441821    1.206343   48.100620
H   70.896393   93.934715   60.492371
H   25.384039   90.612732    5.359563
H   96.344185   18.275202    1.177719
H    6.128844   46.307999   20.765339
H   72.343712    0.572739   86.978394
H   99.527626   18.645569   78.096718
H   96.244713   18.956367   69.659172
H   50.121948   71.714462   82.089661
H   75.955666    5.946888   86.821808
H    0.006538   38.632610   32.577045
H   91.306114   56.656864   24.447569
H    3.167669   19.326649   15.011564
H   61.181927   92.549583    1.408839
H   97.525429   32.936954   95.856606
H   55.894974   27.315475   17.261742
H   47.989273    1.772701   98.781570
H   67.095345   89.912170    0.799201
H   61.084984   24.299841   97.253967
H   32.220371   11.763107   23.436214
H   11.146727   10.592158   68.502327
H   90.023666   66.435257   28.370697
H   35.136478   93.886482   57.664177
H   68.720848   44.366962   22.926186
H    1.097181    4.034138   70.882576
H   46.826138   20.988407   74.698898
H   10.778065   51.788643   81.436813
H   96.745941   22.472622   67.034065
H   34.615589   37.764469   60.866646
H   24.466362   38.279381   99.270309
H   35.446526   22.085007   77.099976
H   72.671051   19.033083    5.528208
H    6.419937   69.797104   34.210648
H   24.752192   33.166050   38.216187
H   74.915794   67.060127   58.128498
H   74.442085   98.824539   22.733585
