100
TIME:    4.270, STEP:  4270
H   28.559185   30.440491   95.236710
H   82.548775   36.249023   47.343445
H   53.152122   81.105156   73.221352
H   82.193314   56.726494    6.109092
H   56.925049   15.016833   49.926926
H   61.810452   96.582085    1.618032
H   29.180058   49.669292   24.372568
H   84.272713   58.010265   16.136181
H   48.663185   75.750259   31.305292
H   58.152428   77.694237   74.899536
H    3.070027   38.055103   28.441803
H   92.865532   37.723534   88.986153
H   71.589615    3.374268    0.733408
H   43.655266   91.914528   82.189072
H   32.441261   88.614014   45.517857
H   29.837624   38.259331   78.593689
H   80.739082   64.396561   62.103294
H   92.383263   87.050438   51.507687
H   11.775055   57.486916   88.322784
H   77.475639   15.137926    7.054039
H   10.888855   31.125408   41.348076
H   71.749405   49.752472   55.648331
H   28.733376   59.894585   10.179866
H   22.312263   87.893616   89.945419
H   76.864655   47.527786   68.074745
H   27.081251    0.421521   88.887062
H   93.871819   64.980423   84.692177
H   72.250946   55.748871    7.913714
H    4.017587   36.499477   55.326759
H   64.723953   85.156975   22.841145
H   84.106941    4.955172   71.550133
H   35.367504   34.535965    3.968769
H   71.131325   56.068626   82.472275
H   58.519318   82.402771   91.863518
H   74.630356   36.140953   84.741592
H   43.821186   19.873920    6.003949
H   89.347580   48.159653   44.924549
H   87.505257   80.809181   23.763851
H   64.836731   88.382317   30.517172
H   61.006279   12.439864   73.989807
H   43.427109    2.699636   42.945049
H   47.857864    3.496912    3.410028
H   48.020847   89.105865    9.900866
H    6.691007   84.331085   98.233032
H   86.264610   63.416618   21.506266
H   22.998821   44.360523    0.505827
H   75.094040   57.055138   66.455376
H   56.467457   39.349579   32.781303
H   89.847397   78.807953   74.143402
H   15.432261   95.725624   85.014992
H   43.218845   57.402657   98.439011
H   12.646761   67.516083   93.743652
H   97.444771   46.767639   54.875332
H   77.808006   37.536766   20.239506
H    0.810721   32.800816   36.665241
H   98.908951    8.042135   47.265930
H   66.949905   66.337639   62.099983
H    8.102735   73.638756    3.569044
H   27.042601   19.186771   83.673225
H   77.242279   55.995449   42.161629
H   29.055914   79.996727   81.472816
H   47.363976   88.197525    2.148895
H   63.952091   15.905772   40.663750
H   36.252571   65.023682   11.207798
H    1.805068   19.805817   93.215233
H   39.032173   29.998360   98.659531
H   44.978714   95.988342   73.217697
H   85.407555   61.743179   70.333290
H   69.719803   42.971359   92.425110
H   16.896936   62.912918   92.741730
H   86.440147    4.868732   10.925629
H   21.886410    9.812053   69.252251
H   28.579924    7.095867   52.267494
H   36.211056   79.166069   49.444847
H   68.043587   34.726696   25.093245
H   26.602686   81.240196    8.613228
H   54.643913   56.452015   66.566048
H   32.592693   71.516731   50.256989
H   66.273018   40.976391   65.327629
H   90.116241   76.401329   53.056877
H   94.431198   73.456772   35.196270
H   61.709396   72.113907   29.723162
H   87.959358   78.532288   36.596447
H   43.918976   77.552071   73.417801
H   44.416153   81.793983   33.823715
H   53.019978   65.901009   38.305069
H   52.338371   92.889130   27.153715
H   24.687876   63.427711   51.336754
H   44.298935   56.425255   93.267708
H   88.813156   33.596489   76.858368
H   98.768555    4.000041   23.636393
H   94.233185   16.626846   14.889658
H   59.168770   55.639435   49.210186
H   59.940395   72.240891   14.723200
H   82.764351   67.249931   14.207244
H   46.606094   27.113274   46.897972
H   23.669743   12.727019   91.617081
H   22.539694   52.594177   87.708412
H    5.300248   55.256588   87.379448
H    4.438072   69.055855   86.397537
