100
TIME:    1.802, STEP:  1802
H   95.460846   56.768723   97.496231
H   51.144356    2.445885   91.669914
H   10.729605    3.547599    2.181914
H   81.779068   58.407921   41.389668
H   79.030701   17.195759   16.845173
H    0.072785   99.255852   57.204517
H   58.526165   83.017433   31.371605
H   78.252647   44.497387   42.740715
H    9.331398   13.038530   86.657616
H   25.595568   42.257408   78.255028
H   32.637375   38.749744   66.170807
H   87.062683   14.015413   64.660683
H   28.637524   52.683922   46.024536
H   65.857109   99.521584   94.372398
H    2.418382    9.065487   64.153793
H   29.070526   54.120773   83.459732
H   79.189362    1.166128   37.422455
H   39.652405    7.069339   37.074509
H   73.328880   53.951065   58.297306
H   43.968430   67.544296   39.021156
H   57.343399   76.822937    8.335327
H   35.135441   46.478371   65.819008
H   61.684731   79.966667   80.792435
H   51.616203   58.293888   73.242767
H   65.134026   43.258842   49.857574
H   38.396336   73.913467   20.271135
H    6.689926   67.572098   35.725010
H   80.494095   40.550976   26.336432
H   50.353683   12.583701   71.990929
H   70.090096   46.240585   26.642097
H   86.987312   83.639435   66.817566
H   79.536621    2.727057   32.443886
H   97.287552   36.638908   60.135345
H   54.240227    8.580179   95.836411
H   35.980293   22.702919   34.457458
H   29.231945   26.040110   14.444985
H   52.633751   38.543800   50.455814
H   89.511559   25.972393   49.602795
H   69.710739   42.040611   69.414612
H   93.465309   43.486217   79.812271
H   12.095078   18.014456   84.798874
H   69.667694   92.731819   87.461166
H   26.762518   74.306000   31.634037
H   64.289345   42.972267   56.923328
H    0.345803   60.790859   10.311941
H   54.839245   97.287178   90.487831
H   55.107533   22.948145   43.021187
H   56.335651   13.936655   80.075493
H   17.705427   83.207664   72.593124
H   63.683498   58.176991   57.629322
H   43.407139   95.671684   72.416855
H   92.707329   96.526642   55.765079
H   46.260086   32.457336   98.211845
H   34.962383   77.806282   11.334093
H   97.302185   16.477556   15.697393
H   95.820938   10.638132   31.282471
H   10.491543   37.551216   27.372747
H   91.876556    6.710700   67.140213
H   32.396652   14.907178   73.143646
H   40.104908   66.296722   12.356652
H   73.372147   94.771309   73.896965
H   34.954651   11.171602   13.818780
H   96.460831   84.270149    9.934012
H   66.780701   51.596924   78.217445
H    3.845650   16.921021   63.378948
H   90.645668   52.690254   52.733654
H   42.991074   10.663455   54.063183
H   55.889336   20.595615   52.348621
H   46.714569   20.306091   47.214943
H   66.889465   38.778473   97.938629
H   64.810768   72.792610   40.535282
H   25.384264   91.720062   88.555748
H   89.497498   29.172070   15.542149
H   90.532097   35.345268   96.110344
H   49.052559   31.207731   38.002178
H   68.261833   23.063520   74.677086
H   30.564543   70.362534   22.917662
H   16.641567   32.891975   13.956853
H   47.928360   48.223484   37.783379
H   11.152018   10.812735   65.677284
H   46.145794   47.924175   87.690300
H   76.529617   55.995987   36.095779
H   31.815289   37.333679    1.531562
H   74.132210   66.361061   98.837128
H   64.587036   36.168266   73.068787
H    9.815853   75.246529   66.919594
H   87.506218   72.332840    9.469524
H   84.963806   61.022095   77.010689
H   93.078316   93.840141   13.456785
H    7.016991   35.136475   88.634987
H   97.767769   70.733139   71.516678
H   11.616924   31.033003   67.855919
H    0.904392   81.625473   58.322830
H   21.397617   22.536848   48.317703
H   25.436848   88.317200   57.494438
H   42.759415   24.571878   74.373230
H   19.568119   71.093605   33.554718
H   13.481471   31.580627   27.204010
H   22.869438   44.618008   94.106339
H   51.151657   32.416607   24.127563
