100
TIME:    8.465, STEP:  8465
H   44.868401   45.740166   91.396072
H   66.693771   63.571751   11.849940
H   25.276499   82.910217   23.973782
H   82.897430   83.891899   76.168037
H   19.345427   51.264332   36.183487
H   96.747192   92.037331   17.062969
H    9.320121   32.935371   52.427189
H   54.553986   20.932337   30.965553
H   45.542015   72.417404   67.246887
H   43.550789   37.929859   39.159706
H   12.861343    6.850296   24.358202
H   32.755959   47.997219   90.381493
H    3.964658   49.610703   83.878540
H   35.944557   78.984383    1.429340
H   83.421883   13.897293   43.818420
H   61.164047   71.349083   30.372269
H   43.402138   41.864254   43.990700
H   82.082153   82.932167    6.088551
H   77.109268   33.470661    9.331904
H   64.451004   26.050447   92.669197
H   61.951622   13.499363   27.489954
H   73.928139   55.321396   98.405365
H   72.722252   25.779844   90.156067
H   32.537041   38.094208   78.389984
H   26.826916   14.842957   99.055885
H    7.694029   76.555283   94.287766
H   32.132187   90.596695   67.929428
H   18.289854   51.557285   46.581177
H   95.233772   17.103132   57.026726
H   25.578403   81.330521   56.331665
H   49.207546   81.128349   39.655220
H    0.242695   18.633976   15.616585
H   66.621231   49.142418   60.391006
H   35.769073   97.956055   15.134478
H   70.285210   18.750694   40.070225
H    8.485807   48.446129   92.813759
H   91.702751   94.527596   75.474266
H   14.118721    4.036697   19.793190
H   87.761375   96.980736   23.990772
H   65.884125   19.718130    4.042737
H   56.728577   46.635834   41.776211
H   86.829727   74.798660   12.114446
H   84.136993   14.266817   12.909695
H   38.824902   54.730141    8.398204
H   22.380077   97.909828   80.483940
H   68.856133   24.369244   17.551294
H    7.872485   85.193245    6.722156
H   56.704281   82.556747   92.343803
H   12.472282   31.378807    6.800768
H    3.464138   59.576153   91.659569
H   42.920345   52.402550   42.661667
H   16.527620   78.250168   18.361816
H   84.457542   71.091675   11.238085
H   80.660980   69.093719    5.353995
H   66.798988    0.436439   72.343674
H    4.138906    3.629365    4.458221
H   32.896080   45.292564   61.079399
H   95.734802   77.472313   95.515160
H   57.892467   96.444344   61.628990
H    0.417129   78.436554   22.845848
H   93.678909   84.909424   54.397129
H   98.478508   49.151047   12.339640
H   48.750011   29.646994   53.000000
H   24.315784   87.875473   97.312622
H   68.315308   84.758667   83.877289
H   81.330666   21.452965   46.701221
H    8.405401   41.018955   75.752121
H   95.630157    1.659145   70.878555
H   78.797089   41.545418   29.322594
H    1.944526   73.818314   83.889481
H   53.228374   19.441784   60.610329
H   76.194595   70.528709   76.526474
H   55.057495   99.598595   44.708302
H   43.859776   13.670429    0.192684
H   70.238785   40.779476   43.123569
H   25.774477   50.100632   26.342611
H   35.585770   93.132690   40.870415
H   29.678518   97.219032   81.935059
H   67.439079   28.654346   12.125648
H   84.394096   47.891075   91.653984
H   76.531670   16.856668   85.924423
H   76.502457   99.367279   78.821678
H   53.305237   48.682896   36.107090
H   32.528152   36.527931   90.270592
H   40.155548   19.384617   27.166275
H   56.472218   19.986622   29.618637
H   32.513065   87.877693   27.187157
H   92.169518   27.696083    7.809118
H   31.358772   22.854486   58.958015
H   17.918840   61.005196   26.820845
H   70.445366   30.516392   12.227439
H    4.623178   32.127853   94.820961
H   28.076191   81.509361   73.616028
H   65.374161   26.734608   97.580788
H   10.235516   91.486099   10.603546
H   93.095856   61.458252   30.220848
H   90.690727   53.467659   50.358925
H   21.937906    5.308853    8.945463
H    5.460050   73.356117   36.005161
H   65.003510   61.405331   82.279968
