100
TIME:    0.137, STEP:   137
H    8.057929    9.457717   99.020584
H   97.459282   12.172672   86.642456
H   82.118286   83.760323   21.731262
H   81.499603   27.006304   32.653519
H   93.943954   83.738678   61.990608
H   25.891911    1.064544   92.312859
H   45.789799   70.589516    1.166075
H    9.118368    0.454986   95.614677
H   50.260277   73.121368   91.463188
H   71.096611   18.354099   13.053606
H   87.511627   71.755035   26.553265
H   50.612873   30.557610   83.177498
H   34.548019   53.418732   11.512542
H   48.298588    4.654864   67.666862
H   82.169243   57.784119   44.187412
H   96.014771   99.754051   21.667515
H   13.051594   91.057137   85.828407
H    4.072355   88.038223   94.796677
H   47.397606   84.100662   70.579117
H   88.940926    2.659697   25.534433
H   56.146774   42.578979   53.523018
H   75.484230   44.280762    7.589900
H   83.914879   93.508003   28.431194
H    6.312776   38.324863   96.899445
H   24.682981   75.308311   37.569962
H   46.027348   23.530766   76.330101
H   50.265575   36.782131    2.684915
H   20.981125   62.833874   71.304428
H   14.150136   61.521633   50.695923
H    6.247190   87.448929   94.280113
H   21.490938   34.327782   98.571007
H   74.407654   48.725143   86.581322
H   80.008362   58.458549   10.138997
H   83.890617   61.167450   65.979744
H   77.366478   48.564072   33.070755
H   84.466576   95.247734   20.172934
H   92.939507   99.517662   19.260056
H   58.326057   56.446751   32.109058
H   44.561871   77.583443   28.995857
H   50.289127   99.357231   48.813400
H   25.879345   60.879528   45.566219
H   19.308395   18.005297    9.236730
H   12.421689   64.321487   11.369164
H   70.611176   15.067758   94.126846
H   44.771469   26.486557   67.830994
H   76.201729   65.779594   83.855537
H   37.526661   33.131161   28.793890
H   56.246731   96.792694   77.054733
H   69.032158   21.103092   39.009224
H   28.763113   32.834621   74.082291
H   43.530941   56.418076   54.866947
H   11.791173   51.026810   65.069504
H   11.721182   22.803101   94.912971
H   73.512680    4.966927   37.861225
H   29.852966   70.515701    1.568683
H   93.737656   12.388279   87.962997
H    4.937824   85.593742   69.017265
H   15.858355   63.948616   10.026096
H    1.082814   44.557571    0.965476
H   49.980385   38.318344   59.707428
H   68.342758   72.198593    3.714868
H   94.048737   26.670181   89.155594
H   83.525841   97.810722   24.159393
H   52.447517   42.539726   23.421095
H   37.759491   49.902721    8.319367
H   92.929359   35.462482   54.286373
H   76.576714   53.097683   73.676559
H   70.902214   25.372650   72.751991
H   63.732254   39.942375   51.640995
H   33.162064   55.035408    1.442675
H   17.682314   86.082832   60.504307
H   62.669704   46.978783   66.653236
H   98.058624   11.530788   58.236736
H   27.175484   40.710270   95.066292
H   68.775681   28.838633   11.783317
H   28.896795   16.352587   86.711227
H   79.394073   14.669888   93.456360
H   38.416840   41.762272   22.005905
H   68.121010   53.099018   19.216053
H   92.806717    1.492418    9.118494
H   13.562986   30.698507   88.177017
H   51.603199   45.122269   75.324768
H   26.464470    9.544038   42.948364
H   59.595245   23.884861   50.916756
H   45.659828   40.315414   34.471565
H   48.144108   14.082580   51.298145
H   76.304634   93.391899   30.075878
H   58.160599   94.325615   94.314201
H   58.526314   86.544533   27.080097
H   54.222481    3.650149   29.109312
H   29.629183   80.828629   36.354931
H   88.423241    5.810297   36.135132
H   94.074577   31.736502   29.513693
H   60.470245   21.542261   36.056026
H   54.223164   37.458225   19.235298
H    5.237242   90.321587   60.372704
H   51.727776   75.542580   29.309929
H    7.368344   17.404144   53.843224
H    2.185785   37.440845   33.575924
H   47.749676   75.184090   84.490829
