100
TIME:    9.288, STEP:  9288
H   89.212799   70.267769   90.642593
H   43.963821    8.166204   63.744587
H   39.423069   42.119438   14.313278
H   83.035568   49.985344   31.055243
H   11.970751   17.231140   13.870352
H   83.988281   91.145714   98.567322
H   66.184319   88.507957   16.786877
H   89.867813   92.132309   55.401207
H   25.311104   93.288528   15.440325
H   21.070471   49.746922   71.383492
H   36.307892   39.963776   45.080559
H    1.342167   89.250191   31.798512
H   51.484756   99.798943    2.092046
H   95.195755   76.447670   64.062263
H   93.418037   40.382881    4.241861
H   28.073387   99.366379   62.055725
H   77.221260   96.300560   18.911634
H   99.685013   42.884758   77.557693
H   89.930969   67.998108   52.688343
H   42.279758    8.572874   48.702812
H   13.113531   31.567629    5.151824
H   52.829952   56.413940   28.319260
H   61.734016   19.089579   66.609848
H   56.069447   47.939667   17.266233
H   97.393051   49.576294    5.131492
H    3.812023   52.293259   16.839472
H   61.165329   56.387348   84.254807
H   48.846771   89.972153   73.785789
H   13.129781   91.772270   18.123215
H   57.135979   60.961472   21.757793
H   81.597450   54.928036   74.542099
H   52.207264   95.895782   39.427376
H   24.591110   88.928467   34.533348
H   70.542130   22.532806   80.463112
H   49.803139   56.438057   90.141907
H   80.027603   12.908425   90.226814
H   70.638336   64.388435   40.323322
H   80.101067   88.978310   77.869087
H   53.024006   79.047935   44.235947
H   88.367599   42.672035   68.796158
H    0.483025   74.874878   61.165737
H   17.471985   78.026062   54.128666
H   91.219696   19.204693   72.353874
H   86.277748   68.548134   88.865425
H   50.990158   65.447441   50.912487
H   58.235489   40.065197   20.894857
H   14.306897   29.952028   14.625710
H   56.754513   91.033386   43.265965
H   36.527100   63.216969   73.973267
H   20.738783   72.106804   34.115627
H   42.998402   72.957970   51.133682
H   56.526012    1.881150   64.336678
H    1.524243   75.863708   63.441666
H   61.598755   55.665337   41.669380
H    1.270040   72.561432   79.338470
H    5.163952    2.763649   76.441345
H   85.070755   21.545418   39.353615
H   34.451843   99.749733   74.317284
H   22.803650   31.220392   98.445244
H   46.105961   41.695171   99.437782
H   45.596714   46.635540   90.233055
H   69.268639   41.490677   75.103691
H    4.622495   73.486473   96.564423
H   80.830688   92.358673   74.971970
H    0.978720   19.025883   60.519718
H   30.772301   80.539665   95.363411
H   42.375198   69.470276   15.486683
H   38.780167   48.728401   10.222717
H   19.814005   82.409897   77.706177
H   18.659439   15.157463   82.143921
H   27.089523   63.444218   50.739754
H    8.423392   43.202538   36.852528
H    1.396902   58.886402   23.604610
H   25.744884   61.581142   51.291908
H    9.883565   41.991322    5.524072
H   45.233070    2.846006   70.963760
H   10.331185   21.900097   55.469070
H   68.339165   43.408073   27.391312
H    6.907899   26.236935   21.311152
H   44.032738    3.057414   20.751610
H   92.643562   25.370981   35.114525
H   38.260056    4.709263    9.970179
H    5.359760   62.446445   14.484776
H   89.148613    6.953262   15.102570
H    0.083023   67.898788   47.386169
H   37.528500   50.218719   86.770020
H   87.479362   28.038902   66.430855
H    5.405221   61.840981   99.276459
H   48.437748   77.031456   52.226936
H   45.155155   27.142593   56.238472
H    4.126025   74.954361   29.607689
H   65.516846   94.026154   10.501985
H   80.832275    6.199881   37.259880
H   44.779518   76.654037   53.278667
H   96.005478   17.766796   29.513178
H   61.072311   28.958487   87.711487
H   25.364418    0.698212    3.026394
H   20.349321   46.030117   92.420860
H   66.254143   76.910027   67.071129
H   16.125572   40.289082    2.996838
