100
TIME:    7.568, STEP:  7568
H    5.529594   27.998924   92.217300
H   91.467484   14.961932   55.292843
H    9.857943   18.376102   34.503422
H   82.746872   20.849094   25.334438
H   27.383196   79.365913   60.505524
H   10.657285   93.009117   28.230186
H   56.329990   72.366119   82.280609
H   25.056419   43.329662   13.324618
H   67.591988   58.661057   23.707844
H   68.050758   25.050264    4.035894
H   96.298111   70.757523   10.761793
H   66.993729    3.035478   54.230354
H   61.163490    3.905369   73.019096
H   80.359306   81.749184   33.168377
H   72.526924   94.021774   86.957062
H   97.229645   49.804077    4.830514
H   15.533688   82.535004   62.333248
H   62.906086   26.579956   37.181236
H   63.135128   95.838821   62.071751
H   88.622482   45.097164   31.597208
H   15.180862    2.798300   51.833157
H   87.931870   54.130615   74.793182
H   84.698494   33.072166   15.820502
H   15.881254   27.363497   45.008560
H   58.909004   85.979721   92.431313
H   11.923580    2.998421   78.700478
H    9.481440   27.883596   50.130825
H   93.976189    9.688346   16.929739
H   75.729607   35.719837   99.429466
H   91.184433    3.531319   85.023155
H   13.903235    0.693385   10.622932
H   43.605343   43.414532   98.656425
H    3.436072   14.771551   79.582161
H   97.867226   80.160713   52.923126
H   92.608925   86.666252   85.495010
H   30.510643   78.186890   95.633308
H    5.669046   27.379522    4.794185
H   51.191887   20.453167   56.493034
H   25.624043   16.523088   10.917076
H   50.371994    3.692031   33.468719
H   18.032351   15.860311   20.643278
H   62.424126   71.281067   66.318321
H   76.417450    8.886063   48.117496
H   96.102066   39.671043   20.694614
H    0.188260   33.297550    3.723866
H   80.435448    7.263710   13.907095
H    0.860185   36.412300   98.108849
H   56.649532   73.317932   36.842480
H   86.250740    5.669082   42.583809
H   84.631592   45.923237   54.378532
H   42.981937   39.002304   33.203857
H   72.933273   61.485432   77.244659
H   65.856728   65.890564   63.332680
H    1.437569   83.725266   65.771255
H   38.219894   21.827980   64.719940
H    3.021694    4.572922   34.994217
H   76.029541   71.174934   75.767189
H   62.526779   62.183205   18.620684
H   87.145149   58.543682   30.490715
H   59.607590    9.489049   48.358665
H   37.096294   26.624969   24.335442
H   30.314827   57.500198   52.927330
H   87.852180   90.855988   14.509979
H   62.722080   82.989166   21.667271
H   32.709061   56.401554    0.343418
H   36.433105   66.045647   93.663071
H   80.373474   10.008657   32.446026
H   57.592247   50.359673   27.996765
H   34.090332    5.998108   85.580933
H   83.726906   28.765619   85.791992
H   81.713890   80.475281   71.368416
H   50.060551    0.311927   10.778058
H   13.543215   43.967823   67.708557
H   63.603466   70.439697   53.488464
H   27.028898   39.458668   75.112579
H    4.567047   92.610497   86.698921
H   54.118855   70.771675   24.960634
H   87.538727   55.868404   32.392002
H   24.426710   31.289120    2.115221
H   28.382835   96.754143   68.931252
H   58.971077    7.576791   32.311920
H    9.193715   93.550247   53.864704
H   96.567284   33.681797   50.681808
H   70.814705   59.769405   72.196678
H   83.831192   75.496422   14.120166
H   77.114914   87.039612   67.328079
H   72.604393   53.097221   84.414742
H   77.743279   99.474670   17.109543
H   12.740849   72.798210   66.294319
H   97.225464   97.906265   94.755402
H   33.736469   82.081398   93.284103
H   38.254261   64.665268   77.725731
H   70.576904   54.598064    4.249637
H   78.683723   72.314659   37.097347
H   25.746460   71.834946   89.991608
H   19.007401   96.880554   76.551796
H   61.890038    1.991878    1.945798
H   23.669329   60.922436   26.954309
H   48.190910   69.482658   11.137386
H    9.289698   84.426315   68.691620
