100
TIME:    6.102, STEP:  6102
H    4.669352   62.437675   93.559464
H   31.951859   35.522518   62.857563
H   84.651581   12.906413   51.716663
H   82.500809   81.247467    5.690749
H   40.515991   61.859634    0.255900
H   33.395107   94.597343   83.048058
H   33.164776   73.374702   67.637428
H   40.281128   16.502972   47.929012
H    3.629120   99.610855   15.987390
H    8.093073    3.999344   46.635715
H   32.661850   11.769661   51.973480
H   22.944115   29.552158   58.581902
H   54.685593   92.589928   18.696220
H   52.946083   86.267799   21.604702
H   54.720680   24.972118   57.456203
H   56.175873   78.025734   26.521935
H   33.420662   85.570656   28.877478
H   31.555395   97.915924   87.998573
H   40.307171   34.339989   84.839142
H   28.118858   76.228554   31.785120
H    2.175392   48.744495   91.624870
H   47.385025   52.184479   99.636642
H    4.272128   44.995049   57.765244
H   52.094715    9.825899   53.886517
H   11.342196    2.239799   81.604530
H   18.729963   46.269745   16.613113
H   35.896439   88.824051   21.039442
H   17.673016   41.260429   68.474777
H   43.853233    2.713466   68.727386
H   34.970173   39.815422   68.480118
H   56.209099   69.232903   26.608116
H   51.041203   83.919800   34.371330
H    0.173099   22.030802   47.513306
H   35.926399   14.510736   14.683813
H   29.092678   97.654701   96.297363
H    3.074368   63.363594    0.241521
H   65.059273   81.066528   89.279152
H   11.786587   47.285244   53.041813
H   87.504700   48.463860   52.983009
H   88.453186   40.934574   18.126699
H   18.223137   65.554909   86.106178
H   85.970581   65.532135   91.477654
H   63.800938    0.091860   42.227783
H   89.710678   15.064718   77.356651
H   27.352787   91.138840   78.274765
H   99.359947   79.303146    7.951247
H   89.406540   56.685684   84.038506
H   56.565296   58.218597   46.135090
H   43.396378   27.082321    1.061623
H   53.855175   23.607695   56.881073
H   43.082600   80.534607   17.751770
H    1.678926   97.519135   73.477760
H   35.446232   57.390198   48.474850
H   35.383110    7.640832    1.081663
H   54.944786   93.354782   52.249653
H    1.195793    6.115011   84.900314
H   83.091972   13.476266   36.338509
H   71.688141    0.628572   56.382187
H   71.527771   96.593010   43.031487
H   56.348618   96.807327   90.055199
H   44.619801   94.801163   38.635715
H   82.346016   71.145523   19.257133
H   88.325310   90.893227   15.037994
H   62.054337   75.003296   61.473591
H   74.522888   73.488327   63.821735
H   26.490631   38.924492    6.981412
H   97.993149   59.322109   61.666885
H   58.858894   66.517189   57.913486
H   61.026745   11.335518   77.526428
H   54.008850   55.056190   88.884064
H   28.267212   80.220810   88.950752
H   70.828506   49.011536    3.381255
H    9.129124   16.477097    5.290627
H   95.882347   63.222103   40.592918
H   56.371685   37.340405   63.971085
H   69.915657   98.653252   85.342102
H   20.976650   97.664894   98.964851
H   18.663387   51.726280   51.431435
H   54.124668   35.595226   85.762077
H    0.277737   76.614662   95.228508
H   30.278971   92.409653   44.690922
H   99.184982   84.043121   76.508598
H    3.838991    9.165732   11.066582
H   69.956474   34.320824    6.094284
H   55.212608   67.202766   56.231903
H   10.851215   33.190102   65.524597
H   74.693504   59.687675   14.510412
H   54.165947   16.785101   32.309540
H   82.316513   54.422417   78.284309
H   26.839636   58.224926   42.348557
H   73.741631    2.922803   62.324871
H   29.785105   54.407883   49.792061
H   76.603485   10.608670   90.881607
H   37.002201   83.374458   38.247437
H   51.092354    3.148852   56.303318
H   97.921738   54.770050   52.272751
H   78.254417   17.861628   86.257538
H   26.499056   88.385574   56.382195
H   18.027649   63.153622   33.930832
H   18.230433   22.048054    9.915011
