100
TIME:    2.118, STEP:  2118
H   74.090729   27.789841   97.206924
H   42.354256   19.578962   11.602816
H   16.161337   26.281078   98.472939
H   81.832108   45.389122   24.067986
H   76.200317   42.524555    8.277536
H   95.173836   98.913506   88.498375
H   41.965771    4.354219   56.083214
H   53.415672   71.835144   13.725718
H    1.563472   82.656265   66.767784
H   16.960970   46.794701   90.627708
H    3.243824   51.464771   35.733166
H   75.003418   29.854876   42.167091
H    8.536963   33.565575   14.617249
H   50.210442   98.547585   18.420429
H    6.262305   80.839081   48.962807
H   16.364498   26.481209   57.229263
H   53.783417   22.063728   66.191772
H   46.405304   91.702156   26.118782
H   78.251915   67.207962   74.946075
H   35.455582   60.833523   60.535927
H   38.591507   45.364231   99.758575
H   65.435074   46.895660   38.910995
H   57.465675   77.396660   71.751602
H   22.256401   62.083805   49.773712
H   53.831779   18.197655   52.188904
H   36.947392   64.496536   90.652046
H   79.441750   54.435818   41.995731
H   53.830589   55.300793   36.781307
H   57.224716   41.253242   57.053062
H   82.207222   38.419662   51.763302
H   99.417854   11.977507   41.813969
H   99.489136   93.995476    3.190208
H   19.546364   13.519451   88.603119
H   67.591728   79.620743   82.523483
H   28.125023   98.815430   53.698761
H   56.706554   50.864742   13.358880
H   82.942535   26.971010   75.355469
H   76.449364   20.188671   71.901955
H   55.673111   35.267822   39.061958
H   63.700504   13.902898    4.673586
H   90.499687   28.857428   92.243698
H   41.267426    6.913693    2.307299
H   29.484411   76.200958   54.457939
H   44.110207   48.268990   87.820724
H   72.934013   48.324154   37.353912
H   50.762432    3.314381   91.770424
H   58.275959   40.022247   45.786491
H   56.352528   17.190149   99.627800
H   26.941542   57.035702   59.988228
H   70.308739   62.986713   35.528706
H   43.383030   65.164299   75.748703
H    8.064062   67.205414   35.019382
H   52.815292   34.289612   79.860161
H   27.645336   72.651802   25.277468
H   72.146973   44.180401   18.378370
H   96.216324   10.306032   20.525085
H   30.523783   28.433235   57.426888
H   68.346283   76.868515   59.001053
H   57.318008   28.259836   48.883781
H   19.253132   90.584015    3.369451
H   93.305374   80.074532   49.259129
H   23.740086    8.229715   99.520294
H   17.895061   62.721626   88.255051
H   88.478699   53.315887   69.639503
H   16.388397   91.682739   92.806305
H   71.233192   36.980904   71.418037
H   17.637484   21.588102   69.319290
H   34.061150   38.668396   67.455246
H   62.464905   97.600365   27.395027
H   73.292786   54.673462   97.273224
H   54.776649   51.291115   36.745159
H   99.328918   81.232697   11.691320
H   68.894043   13.542278    7.439152
H   83.579094   15.347932   77.329521
H   64.287010   31.657362   61.956768
H   75.730766   43.316864   53.414249
H   59.256470   42.972984   28.507307
H   31.487820   12.229403   31.409206
H   63.076408   47.297497   41.308334
H   95.654549   93.603027   38.453529
H   52.329723   51.193340    6.576962
H    0.238314   58.059708    9.671419
H   51.808788   42.608704   31.628819
H   95.868782   93.401588   69.973969
H   49.200745   16.401390   42.436035
H    2.542428   86.852547   88.863503
H    8.611166   49.357071   24.537840
H   90.050781   35.722229   73.722237
H   99.635933   76.245476   10.871710
H   79.079178   22.134552   99.932411
H   10.699951   87.797409   78.190018
H   34.998646   54.798191   73.878319
H   21.178780   91.095444   82.769241
H   51.941166   41.705227   69.623360
H   19.972569   60.013023   64.756035
H   68.859695   12.094135   58.051514
H   94.485794   89.228310   15.381418
H   14.641711   34.271179   22.147171
H    7.816727   45.980160   67.634781
H   70.776291   24.300289   93.691803
