100
TIME:    6.455, STEP:  6455
H   80.797195   30.065779   93.236282
H   22.203907   54.652149   85.114113
H   90.722000   38.302055   47.571865
H   82.560059   66.704315   86.342407
H   37.354202   90.154144   90.684372
H   27.919880   94.214912   18.006195
H   14.664134   97.209312   95.242485
H   12.536026   47.040897   15.516646
H   94.951653   65.671448   93.767235
H   98.450386    9.068310   60.457096
H   99.826660   25.973272   17.971573
H    9.470154   47.246326   33.454567
H   32.159866   71.243813   83.620293
H   35.467369   85.179756   48.469135
H   59.008430   93.440422   40.481312
H   41.982834   47.151161   97.219238
H    5.034359    8.919705   61.012459
H   39.104366   80.738846   75.760780
H   45.803944   49.149765    3.437753
H   18.609253   68.730751   55.819023
H   81.227875   13.601238   82.042549
H   81.227478   52.653091   69.575409
H   99.558647   42.124123   47.665833
H   19.295044   14.048800   27.668669
H   98.717232   74.246704   84.211525
H   17.120790   35.833687   83.417778
H    5.456642   74.151627   28.044394
H   87.887650   57.737282   80.141617
H   51.528786   34.739758   52.040466
H   48.506077   31.078758   96.543015
H   70.102013    0.888449   98.679955
H   73.329926   74.165115    1.692394
H   25.038277   96.204292   79.314331
H   50.841209   82.160538   99.813278
H   20.309189   70.935982   17.777864
H   33.759380   91.011742   99.131813
H   98.917885   68.139282   17.093908
H   97.196556   40.824314   77.952507
H   72.606049   40.772148   18.774805
H   55.203945    7.887426   45.900753
H   94.098572   77.668816   94.422707
H   56.221756   66.916428    9.499558
H   66.839020    2.209466   67.724480
H   67.168793   20.989706   11.871764
H   96.732582   77.209732    8.481807
H   94.803093   86.036087    9.385363
H   92.164352   75.882645   87.426521
H   56.584148   61.854385   67.976746
H   53.713936   97.847633   86.981552
H   61.263935   28.981905   32.197937
H   43.058361   46.455154   21.472393
H   18.836143   64.764587   50.305672
H   42.768978   59.437012   27.971964
H   27.209320    1.880801   16.657654
H   26.838551   24.290009   55.252544
H    1.635454    5.743690   72.883362
H    5.471769    3.290012   69.911644
H   45.402740   67.292412   47.290024
H   99.369827   11.509377   15.932745
H   33.055336   23.940678   80.015038
H   66.886986   78.383560   11.114027
H   69.817360   67.859848    3.284350
H   12.289968   66.805458   90.831726
H   86.293137   76.926224   51.888577
H   88.532791   45.294369   96.694649
H    4.806522   21.375755   27.853819
H   69.671707   71.526550   78.709305
H   34.474876   86.705238   74.788925
H   78.619026   85.971207   55.387470
H   61.159233   72.810966   88.140747
H   17.056866   56.203064   84.717079
H   41.722721   37.296219   29.226326
H   86.112793   99.017090   96.240051
H   88.109840   40.882206   19.619257
H   73.391350   37.844028   90.730484
H   78.259117   21.277313   61.588562
H   53.034756   67.105003    5.221956
H   35.247967   28.643263   70.926384
H   71.052406   34.558353   89.699501
H   82.966019   57.385384   64.817162
H   37.186966   96.061600   65.789261
H   25.675337   86.332458   46.978840
H   26.168053   15.068501   44.685402
H   94.243538   64.527489   73.852013
H   38.024757   45.121803   22.012405
H    2.726121   46.157745   90.037888
H   98.269569   34.021706   31.342764
H   59.843163   88.538269   28.649513
H   89.641953   34.767616   75.397224
H   95.629623   43.700626   54.966087
H   88.187828   21.983677   69.779587
H   55.903530   80.957214   56.516922
H   99.231552   21.200932   18.179636
H   71.117226    4.790476   62.049728
H   44.989616   71.530716   64.415161
H   27.078156   40.830170   34.039948
H   50.234612   38.118759   65.956375
H   25.817682    5.852982   49.296448
H    1.211913   64.676460    4.362450
H   40.155582   12.989555   75.910316
