100
TIME:    3.637, STEP:  3637
H   71.366852   88.489960   95.816238
H    0.099742    1.936293    7.420744
H   42.271469   35.563850   80.648979
H   82.087067   82.805290   40.806889
H   62.594772   64.279091   67.090637
H   71.624886   97.267860   38.930313
H   62.353458    6.924454   74.871071
H   34.025269    3.249389   74.257240
H   64.223534   36.610748   71.151817
H   75.451363   68.605293   50.112312
H   61.950150   12.584974   89.415215
H   17.025597    5.994714   34.042885
H   11.913285   41.663925   63.639854
H   74.998116   93.865608   34.017567
H   24.740910   45.155594   75.946053
H   55.288803   93.623650   31.138975
H   31.641335   22.530392    4.478811
H   78.860924   17.833549   73.455261
H    1.916193   30.930010   54.972210
H   94.533104   28.580580   63.956505
H   48.451981   94.142029   58.526276
H   11.063080   48.912155    9.554092
H   37.184837   65.042732   28.292168
H   81.124779   80.301788   36.958332
H   99.504913   97.726227   63.399879
H   29.980692   19.239534   48.274437
H   48.456661   91.291031   72.135719
H   25.662657   26.202560   86.991356
H   90.253510   79.069199   85.249763
H   40.451355    0.823625   72.519745
H   59.195927   48.191982   21.631081
H   95.399727   52.023247   62.568748
H   26.542482    2.382537   25.446638
H   31.774044   40.413338   18.529968
H   90.364563   83.990715   46.195496
H   88.782265   70.191620    8.132546
H   28.634960   71.340805   95.046806
H   13.669074   92.390099   79.094078
H   91.553009    2.174719   91.860237
H   20.629028   71.700165   24.185480
H   86.688934   80.977509   28.031843
H    4.748310   75.089828   73.670715
H   42.568447   85.309952   64.176720
H   47.111649   73.725708   36.340660
H   41.172749   88.394196   67.338684
H   31.165348   32.287006   97.935799
H   70.148727   22.630470   60.377106
H   56.433651   32.829880   93.614906
H   71.341110   31.233177   99.391541
H    2.156223   86.095787   29.287876
H   43.267139   18.514679   91.764771
H   81.884430   26.252487   35.299877
H   84.318443   43.097290   91.637978
H   92.470085   47.866867   92.307953
H   51.210129   77.323425   31.280775
H   98.116928    8.708593   68.814743
H   26.822008   84.602455    1.896325
H   55.237541   33.418198   19.874622
H   77.118797   92.440338   32.268337
H   19.014908    7.339179   60.165657
H   89.125099    9.435630   30.826717
H   69.830376   94.089401   30.791626
H   20.975821   59.100883   84.070457
H   92.785576   61.578880   28.395657
H   76.682289   70.363686   34.267490
H   77.918556   61.466774   61.231628
H   95.764755   74.101471   42.657207
H   29.133446   25.541517   40.072231
H   38.170166   88.454712   32.126286
H    4.072447   31.072710   94.074646
H    6.540531   47.938591   18.519871
H   74.079208   30.820328   22.905453
H   69.852234   38.404911   68.497795
H   50.148724   19.222450   87.056267
H   37.525928   33.823597   77.107094
H   11.636706   40.670403   51.204884
H   97.170662   11.315258   55.371479
H    2.853205   12.905592   15.296940
H   35.919838   42.835712   58.263115
H   21.160133   10.874424    7.590438
H   82.048599   66.908096   97.364258
H   14.212226   67.979935   82.653564
H   47.911976   67.965546   76.306213
H    0.370464   23.385059   31.233116
H   75.237427   21.387608   95.186157
H   67.589111   42.647812   94.347397
H   10.061743   38.913399   96.969406
H   14.500242   14.107147   57.919235
H   31.162796   91.670265   98.444832
H   44.779133   59.641479   54.229851
H   72.863617   69.817818   10.268594
H   47.395889   69.026909    2.827394
H   18.592892   36.645378    0.259241
H   98.756996   33.843315   72.041847
H   93.707787   23.949131   99.662254
H   94.322845   52.109810   79.593056
H   73.914490   76.400642   28.022478
H   20.216749   47.204559   97.840508
H   35.455009   52.527973   40.400352
H   65.117516   85.301979   47.376427
