100
TIME:    5.787, STEP:  5787
H   25.970961   91.324852   93.847855
H   40.651649   18.452169   42.994625
H   79.234634   90.244339   55.415279
H   82.447937   94.225067   22.957325
H   43.337418   36.610992    8.796429
H   38.280933   94.938606   51.852818
H   49.672764   52.104511   43.004017
H   65.039505   89.251175   76.851173
H   11.372429   29.897034   35.815712
H   16.697943   99.476112   34.302189
H   61.962387   99.095276   82.316078
H   34.967621   13.762831   81.004311
H   74.786453   11.638905   49.996269
H   68.543236   87.238716   97.632454
H   50.889885   53.109177   72.597778
H   68.841049    5.576814   52.669647
H   58.751015   64.734398    0.201783
H   24.819059   13.242855   98.918983
H   35.402119   21.124468   68.242233
H   36.604767   82.919228   10.338434
H   20.867928   80.103394    0.175637
H   17.185669   51.766312   26.461746
H    8.478166   47.556923   66.777466
H   81.362587    6.057589   77.280884
H   22.607723   27.221680   79.278175
H   20.165911   55.582375   46.233910
H   63.060478    1.917244   14.788681
H   44.251308   26.557289   58.062485
H   37.003944   74.133972   83.617981
H   22.892300   47.611595   43.438156
H   43.810684   40.986950   51.529915
H   31.151829   92.624405   63.532478
H   77.986198   45.077538   19.135618
H   22.616302   43.378654   27.953409
H   36.922943   21.466890   77.115585
H   75.691727   38.691734    1.232161
H   34.847816   92.602173   64.458290
H   24.805691   53.050663   30.814068
H    0.799652   55.327568   83.509209
H   18.123068   70.424446   93.343407
H   39.750763   54.747108   78.684914
H   12.517251   64.296860   75.395042
H   61.087658   98.202866   19.475468
H    9.824984    9.777548   46.557838
H   54.675648    3.567946   51.319805
H    3.425086   73.294998    6.671511
H   86.945602   39.555252   81.015205
H   56.548473   54.974197   26.644659
H   34.189491   53.169701   13.627629
H   47.248615   18.813192   78.913376
H   43.104229   10.945822   14.431384
H   86.370293   26.748756   94.155403
H   28.911770   55.563721   66.770500
H   42.677002   12.780803   87.181297
H   80.025200   65.750946   49.570019
H    0.803442    6.446361   95.623657
H   63.120995   22.565559    6.379286
H   95.143951   30.377245   64.495590
H   46.684555   83.283760   67.213081
H   77.135925   72.596893   99.014549
H   24.749214    9.450266   63.194622
H   93.525978   74.077499   33.510864
H   66.941109   12.388332   36.638489
H   40.422600   73.287369   70.025101
H   62.020752   98.645645   34.487553
H   45.841331   54.584129   88.355934
H   23.266857   48.432941   46.459061
H   80.618004   48.502354   42.854664
H   45.326252   33.969414   97.281219
H   47.628197   39.211502   89.547363
H   38.270027    1.653118   92.728676
H   96.802933   59.465714   80.319382
H   29.668579   32.057426   13.367981
H    2.817239   83.159447   59.309502
H   41.185490   36.890995   40.092300
H   62.469864   78.465874    6.538359
H   92.376915   24.967035   93.394096
H    3.864115   72.323647   34.034241
H   39.020184   36.520481   82.248512
H   15.725166   93.773933   22.365826
H   24.114611   89.150833   25.864180
H   75.541718   82.000351    2.858028
H   83.915565    3.898158   81.068420
H   48.285622    7.364961   34.863888
H   70.550209   86.904686   86.767715
H   18.101849   21.619488   43.650131
H   53.655373   82.590736   99.489914
H   49.099876   41.992161   35.575569
H   75.779648   71.961403   80.860603
H   54.690784   71.184372   31.089190
H   60.850548   85.912766   55.672649
H    6.478296   30.716619   43.791122
H   56.411301    1.156690   66.522171
H    6.559285   64.263741   17.007433
H   56.538139   31.365467   49.064701
H   71.904053   67.209320   68.542816
H    3.257843   99.784966    4.373454
H   27.107080   72.798035   62.705170
H   33.033600   61.795780   60.316216
H   98.664871   30.131416   40.260845
