100
TIME:    7.786, STEP:  7786
H   90.787102    8.007829   92.017715
H   85.446671   26.775661   69.038651
H   13.605150   34.059433   31.943764
H   82.783463   11.866940   13.385029
H   25.429758   96.839577   54.594482
H    7.276399   92.772942   49.820145
H   44.905415   87.085510   99.328491
H    7.922050   62.188778   93.308739
H   62.233131   37.701309    9.985546
H   62.096474   28.180422   12.572212
H   76.020279   79.529282   89.762573
H   58.673294   13.962339   38.712624
H   47.262398   90.709854   51.355122
H   69.565086   81.077248   49.758877
H   75.174751   74.548935   76.472198
H   88.464539   30.737061   86.734650
H   98.003120   96.955017   82.178650
H   67.566788   15.972017   29.625019
H   66.530975    4.983937   73.557587
H   82.748032   40.468456   46.439674
H    2.244445   81.096558   45.917126
H    8.831742   54.420013   56.228455
H   81.787880   31.299517    9.583056
H   95.626038   29.971407   28.817394
H   51.111885   68.692337   94.041298
H   10.895718   96.572189   58.185997
H   90.683426   18.821608   54.456829
H   75.581108   19.863852   24.135588
H   80.469749   55.498707   89.124229
H   99.543716   98.135605    2.353690
H   22.482996   20.241634   93.375542
H   57.370052   37.392056   78.475060
H   18.791979   98.822060   99.221321
H    7.078399   60.182259   43.738892
H   87.183540   70.160576   98.757431
H   49.461170   95.261383   94.948067
H   26.578041   19.395292   21.971525
H   42.182289   16.463131   71.876900
H   16.421513   11.773798   89.791374
H   29.839603   83.284241   50.621384
H    3.134097   23.339758   25.779264
H   44.052330   72.135956   77.448509
H   78.293549   10.193760   63.863087
H   82.181015   43.330101   42.009068
H   81.277596   24.697102   22.379238
H   77.621300   11.420936   14.792753
H    2.564350   48.267647    0.201288
H   56.662838   75.563263   50.331097
H   92.624153   87.613777   33.886894
H   89.208740   49.241337   39.135231
H   42.966969   17.955515   35.502411
H   83.527908   41.255833   62.934418
H   70.377327   67.154602   50.672340
H   96.388550   80.169327   75.391251
H   20.862122   40.932808   66.572754
H    3.293213    4.343607   27.572983
H   89.850800   64.884682   96.500740
H   46.293869   41.596016   13.005084
H    4.339212   67.755516   13.754684
H   45.222504   26.245869   42.158226
H   50.847698   16.486885    7.338906
H   22.577583   55.471085   43.062843
H    2.651579   75.980255   99.561066
H   77.691093   84.176697   15.747931
H   41.362732   38.989429   20.645365
H   23.041512   55.208183    6.553136
H   62.883179   17.545155   42.970806
H   42.533562   62.827080   38.418427
H   44.956070   90.334038   71.909363
H   88.154366   39.714520   85.329620
H   74.791618   65.642792   68.753853
H   32.109547   93.073631   26.757193
H   99.328842   33.185246   62.119488
H   58.805111   56.642612   40.535400
H   37.529999   39.779667   91.641541
H    9.721051    6.581930   72.029427
H   73.917686   51.903175   28.826761
H   97.780762   41.614712   44.431965
H   34.879974   30.648785    4.548079
H   17.692566   84.878838   50.150307
H   63.238869    9.832101   45.341492
H   25.552025   94.963974   35.627628
H   10.356187   37.327549   71.443039
H   85.813515   78.423950   52.285732
H   73.216599   61.858379   92.987724
H   72.098679   95.046295   82.466599
H   87.164116   37.246849   94.809792
H   81.249321   82.030945   14.849243
H   17.265606   60.660118   64.511360
H   77.952209   88.938248    2.548845
H   42.657917   93.853584   97.887863
H   54.384052   81.061172   81.880424
H   84.551178   61.139462   21.107912
H   99.753242   85.540489   51.796780
H   21.976799   52.307884   95.001190
H   37.013290   88.271790   65.291878
H   44.586021   14.502112   89.408470
H   23.248537   71.709526   22.577578
H   37.805840   70.424034   92.877693
H   22.830080   78.831284   47.690662
