100
TIME:    6.888, STEP:  6888
H   51.514725   90.358376   92.839859
H   10.246788   78.115120   12.415305
H   98.168152   69.454323   42.487736
H   82.632736   48.865265   62.609669
H   33.475861   24.860914   78.943634
H   21.203808   93.745811   60.888752
H   91.970352   26.448177   29.103724
H   78.503075   84.501404   75.761024
H   84.307686   24.040390   66.513130
H   86.623756   15.286375   77.410805
H   59.550049   43.396076   76.261955
H   92.944046   68.950500    2.634165
H    4.529160   45.057659   40.595146
H   14.028782   83.845131   81.420082
H   64.267647   54.762718   19.659176
H   24.572536    9.279371   61.276855
H   70.215096   37.558193    0.430154
H   48.364155   59.668945   60.750267
H   52.546444   67.315262   26.248692
H    6.944496   59.535336   85.299706
H   55.533035   70.495819   70.288597
H   22.739609   53.227905   32.701431
H   93.777473   38.602562   35.277603
H   79.063866   19.228731   95.510391
H   83.230293   39.907516   87.409340
H   15.129757   23.042213   42.691597
H   68.119911   56.152565   36.636868
H   51.351776   77.948265   94.452499
H   60.943840   74.025307   31.571844
H   65.109604   20.362114   30.964367
H   87.141609   39.715874   64.422371
H    0.669910   62.200237   61.607399
H   55.539371   64.523460   18.322393
H   69.136147   42.478561   81.571198
H    9.532585   38.151772   44.123497
H   71.399773   24.926659   97.770760
H   40.447815   52.282349   51.212742
H   79.298042   32.899151    8.509330
H   54.329182   31.337389   76.814072
H   14.421181   67.352661   79.968491
H   64.505569   92.528084    4.623691
H   19.730988   68.614441   31.605114
H   70.565399    4.807007   99.002281
H   39.521191   28.257467   54.207176
H   59.171898   60.124638   45.535221
H   89.213524   94.294907   11.144491
H   95.547165   99.430191   91.582359
H   56.608028   66.314148   94.768356
H   66.370369   61.984722   69.710709
H   70.354248   35.573200    1.922445
H   43.028629    4.651265   26.036217
H   39.883953   24.583839   21.882118
H   51.751270   61.947693    2.823848
H   17.183113   94.817184   35.763931
H   92.361740   62.237297   58.935978
H    2.174755    5.288216   58.143021
H   32.921101   90.795906   11.093628
H   13.161202   26.401117   36.137314
H   33.518837   29.807415   82.692329
H    4.482790   57.223721   67.699486
H   94.200554   58.246201   77.352798
H   54.449348   63.829544   83.693970
H   41.686954   37.258705   61.139618
H   16.025887   79.284943   40.131321
H    5.718427   10.710754   37.018818
H   78.206787   99.850578   53.456161
H   34.931808   86.498138   99.614029
H    4.564419   11.469146   95.488831
H    0.197689   54.858582   28.229168
H   69.932335   94.587822   87.228973
H    3.306563   26.742203   79.523933
H    6.037698   22.916164   60.937904
H   57.880844   77.599457   85.140198
H   78.575859   13.478325   93.892517
H   94.269646   38.461788   23.555424
H   88.493446   49.029613   32.454750
H   92.359955   29.626751   12.901155
H   55.591091    0.330291   94.837318
H   91.818382   33.286495   94.529259
H   61.730942   33.798195   27.513725
H   45.660515    0.541308   91.669098
H   58.165855   89.140457   10.754688
H   53.557602   22.309729   85.921585
H   24.033413    1.579895   34.304661
H   16.940931   18.036179   80.038078
H   92.761887   62.064232   20.107010
H   27.188738    2.538794   51.989815
H   66.806999   53.889904   24.160019
H   98.627548   10.659750   71.855843
H   57.347767   25.884701   70.444489
H    5.908051   45.363449   78.923752
H   87.941147   13.522956   64.766136
H   26.987431   34.193707   51.664192
H   12.965625   31.059778   91.246307
H   37.503822   32.744637   74.365387
H   62.842148   23.731909   11.674904
H   15.865480   62.967896   41.054382
H   24.981890   27.277969   40.604866
H   80.584709   66.546257   68.095940
H   67.049980    1.878366   34.197613
