100
TIME:    7.509, STEP:  7509
H    9.519472   33.409370   92.271317
H   93.096970   11.764741   51.572483
H    8.843790   14.131560   35.196178
H   82.736969   23.280045   28.568428
H   27.911879   74.636803   62.105301
H   11.572295   93.073036   22.387218
H   59.421963   68.382431   77.666733
H   29.693703   38.225590   18.741928
H   69.042320   64.333649   27.421677
H   69.662239   24.203112    1.725610
H    1.786144   68.383514   16.444963
H   69.245300    0.078200   58.430107
H   64.925713    7.476397   78.882545
H   83.280678   81.931038   28.678288
H   71.810310   99.291946   89.794708
H   99.601852   54.964417    9.728125
H   20.278114   78.632339   56.962246
H   61.644360   29.450912   39.226196
H   62.216404   93.363983   58.963573
H   90.212357   46.349888   27.580210
H   18.682007    8.672058   53.434284
H   82.275482   54.052292   79.817581
H   85.486229   33.552010   17.508718
H   21.363214   26.657686   49.390617
H   61.019234   90.658417   91.995583
H   12.201763    4.737514   84.252434
H   14.569082   30.336153   48.960026
H   98.954674    6.934425   14.979474
H   74.446724   30.366911    2.218353
H   88.922058    4.991667   80.332756
H   11.581105   95.402542   15.290825
H   39.880032   45.044468    4.118319
H   99.280159   19.088114   74.266975
H   95.374382   85.567726   55.408768
H   94.077263   91.133385   81.905640
H   25.382038   73.565811   95.818764
H    0.010239   29.540392    0.145293
H   53.630264   21.533039   52.329742
H   28.114635   17.808447   16.634457
H   55.928902    9.215516   28.826639
H   22.064428   13.836057   19.253263
H   67.396309   71.049698   63.306126
H   75.909698    8.532145   43.856075
H   99.869690   38.680748   14.925939
H    5.306061   35.625195   98.674995
H   81.197075    6.138544   13.667398
H    0.398968   33.203743   97.542580
H   56.645931   72.710251   33.191891
H   84.525826   10.555317   44.937561
H   83.392822   45.025219   58.504013
H   42.985989   44.698303   32.581772
H   70.065918   66.960175   81.117615
H   64.633263   65.548462   66.759102
H    2.803726   84.687653   63.167679
H   42.917496   16.657513   64.218491
H    2.948210    4.634984   37.002716
H   72.288925   72.877342   70.155815
H   66.920090   67.754967   20.140562
H   82.492241   56.050388   35.020042
H   63.500801    4.953984   50.036766
H   33.374584   29.368763   28.935364
H   32.408852   58.049362   55.597076
H   83.846886   94.881989   18.555786
H   58.670422   82.667770   23.269299
H   30.367168   61.114010   94.849068
H   40.057587   68.978722   90.174530
H   85.107086    7.968986   29.597387
H   61.667763   46.985466   25.176224
H   31.149605   10.237473   89.281036
H   82.528648   25.802385   85.917130
H   83.587349   84.489578   72.076027
H   54.918850    2.271014    6.453485
H   17.390287   46.886044   69.221008
H   64.902412   74.174011   56.994110
H   24.186975   39.371792   70.639145
H    3.172154   88.829369   90.669106
H   48.760456   75.877998   23.914297
H   84.766800   59.726360   29.133478
H   21.597616   31.462421    1.456776
H   31.276073   99.968102   74.014168
H   57.816032    6.966409   28.785568
H    4.766490   93.167633   58.800426
H   92.835670   32.695103   45.062782
H   66.755394   54.720699   77.585686
H   86.703949   79.187523   19.839384
H   78.472519   84.872665   63.230957
H   68.663918   57.387001   81.601402
H   76.794395    4.195879   17.721275
H   11.516259   76.083290   66.776863
H    2.441769    0.333456   92.646072
H   31.321949   78.895348   92.038132
H   33.888859   60.227844   76.601295
H   66.794876   52.827686   99.687080
H   72.981422   68.735191   33.119061
H   26.766689   77.119522   88.635803
H   14.134246   99.210449   79.599205
H   66.573235   98.606033    5.339023
H   23.783213   58.003315   28.138838
H   51.001549   69.227882   16.079411
H    5.625042   85.940567   74.375015
