100
TIME:    4.135, STEP:  4135
H   37.688629   42.820709   95.360306
H   86.277260   28.933161   38.830757
H   50.831604   71.392555   74.805443
H   82.170654   62.288322   13.509124
H   58.134232    4.195987   53.587433
H   63.904377   96.728340   88.248955
H   36.255116   40.553043   13.815392
H   94.883446   46.331455   28.531849
H   51.981743   88.729919   39.803516
H   61.841774   75.755836   69.613739
H   15.627396   32.623051   41.445293
H   98.017433   30.956644   98.595757
H   80.204269   11.538311   14.147781
H   50.339760   92.330635   71.916168
H   30.799114    0.672858   52.007687
H   35.265762   50.066887   89.799744
H   91.594948   55.467724   49.813713
H   89.499352   93.615456   56.188892
H    9.672375   51.823120   81.209824
H   81.113487   18.004843   97.862694
H   18.899948   44.565464   45.011673
H   58.806824   49.573257   67.144836
H   30.535820   60.992531   14.042504
H   34.855217   86.274506   99.971130
H   81.693146   58.234306   67.077736
H   27.696657    4.412532    1.582374
H    5.512781   70.591690   82.014259
H   83.642395   49.447525    3.451119
H    1.081984   24.251419   61.708443
H   59.547333   88.498192   12.109390
H   78.794365   92.849236   82.230904
H   26.843489   38.265480   16.466362
H   61.622402   65.946022   70.310410
H   52.815353   94.774750   97.551003
H   77.985992   46.345879   76.520386
H   32.085728    9.300102    6.428682
H   76.398819   53.103500   34.287037
H   93.085625   83.279045   14.237627
H   70.534515   91.323906   43.599770
H   73.722023   25.078163   63.368710
H   52.653564   98.067383   39.764507
H   59.990891   97.438126   97.067657
H   46.858013   88.296310    0.149794
H   15.311346   82.069275   85.032959
H   97.975349   68.743500    9.953628
H   24.740498   41.785603   99.957100
H   74.039352   49.713524   65.159676
H   56.460247   37.959122   24.428261
H   85.900558   89.989288   79.528076
H   12.600879   93.671867   94.457741
H   43.229145   70.435875   97.015594
H    6.086378   80.042557    2.605778
H   94.645317   45.984863   62.716480
H   80.934990   39.739868   14.282683
H   11.559296   20.969568   35.516827
H   98.740036    8.184271   51.861649
H   58.391544   70.232979   49.260399
H   18.155022   86.387703    7.046482
H   16.395819   13.482407   94.036766
H   86.151505   45.618519   46.001350
H   20.539621   86.275414   91.999092
H   52.155388   89.454086    8.257483
H   54.786404   25.118320   49.921104
H   26.982107   64.288284   14.873455
H   96.446968   30.588039   80.643440
H   47.325478   36.709633   90.677277
H   55.809860   91.320526   66.700058
H   94.732887   54.022537   63.879513
H   62.991898   52.671600    0.891542
H   14.161856   56.122337   93.026001
H   90.726875   14.054247   12.545254
H   33.017746   14.292672   59.368191
H   37.382233   13.773151   55.729218
H   39.183544   87.708626   57.466240
H   61.534580   34.534092   14.858966
H   23.410814   72.588463   17.696823
H   42.386261   68.153122   64.178581
H   26.250149   80.343559   42.801048
H   59.799309   41.372929   63.821693
H   96.736877   83.753242   64.687279
H   91.790359   72.060135   27.127810
H   51.579659   71.232254   41.011719
H   79.418861   76.278717   23.738323
H   34.631752   65.999947   85.748581
H   50.989410   90.237663   46.910492
H   56.127392   60.942108   28.930298
H   43.322029    2.704741   20.716413
H   22.515158   74.236198   52.740601
H   41.497421   63.941963   94.371834
H    0.748477   39.151108   72.031937
H   93.243805   96.710243   20.785440
H   84.244553    6.474691   12.317213
H   50.514977   51.588570   38.770428
H   46.891727   64.052643    5.620889
H   85.098259   79.341759   11.105237
H   35.455658   32.443916   53.870857
H   34.385132    4.979855   99.380981
H   22.044279   51.444733   89.869286
H   11.731316   54.674656   98.686440
H   96.052544   72.520668   99.401917
