100
TIME:    8.662, STEP:  8662
H   31.545918   27.674398   91.215714
H   61.252945   74.246048   24.271408
H   28.662737   97.083420   21.661430
H   82.930496   75.775749   65.370552
H   17.580164   67.054749   30.842022
H   93.693115   91.823906   36.572716
H   98.995445   46.238342   67.832848
H   39.070175   37.974751   12.877126
H   40.699379   53.476715   54.846104
H   38.170082   40.758488   46.873055
H   94.536896   14.776721    5.382180
H   25.236496   57.871868   76.358589
H   91.402573   37.687477   64.300583
H   26.190596   78.377174   16.421658
H   85.814644   96.300301   34.345070
H   53.243286   54.118797   14.019024
H   27.560616   54.893681   61.924385
H   86.293533   73.346092   99.259842
H   80.178375   41.735607   19.710056
H   59.143818   21.866873    6.081808
H   50.261360   93.887360   22.143064
H   92.814720   55.582916   81.628983
H   70.092018   24.178408   84.519852
H   14.232847   40.450897   63.759846
H   19.781647   99.219437    0.510534
H    6.764805   70.747726   75.749878
H   15.144629   82.408401   71.837204
H    1.667852   60.752583   53.093636
H   99.517296   34.976070   47.714195
H   33.131798   76.454819   71.992828
H   56.961475   98.794502   24.069206
H   12.681181   13.191452   97.379372
H   80.496841   34.728737   78.138321
H   44.092636   79.902130    6.835688
H   65.382454    3.835066   52.056576
H   25.610132   63.877335   92.194527
H   10.597852   87.313240   90.997154
H    5.976645    0.431305   33.694351
H   79.446831   92.688194    4.900536
H   47.329552    1.275382   19.542330
H   43.264786   53.394783   46.417446
H   70.227692   75.571198   22.171707
H   85.832367   15.448544   27.138592
H   26.246372   58.038223   27.659031
H    5.291854   90.139366   97.341484
H   66.313072   28.125969   18.351637
H    9.412690   95.906563    8.613918
H   56.716305   84.585785    4.532949
H   18.230240   15.063843   98.942200
H    7.599241   62.574619   77.886162
H   42.906818   33.383705   44.738800
H   26.102423   59.970463    5.429603
H   88.542671   72.233948   99.796585
H   76.097900   65.880325   14.046542
H   51.113777   17.700880   74.018005
H    4.384270    3.422140   97.751862
H   45.384430   39.608253   79.815681
H   81.065613   58.868294   90.441063
H   73.430382    4.768437   46.504395
H   87.416298   93.577682   17.242699
H    6.105827   75.747192   39.038067
H   91.486595   47.317398    3.425784
H   62.125126   16.203493   39.491119
H   37.843777   88.948608   91.964981
H   76.133865   69.025360    2.222855
H   69.228584   11.659644   58.349400
H   92.599625   47.829006   85.263046
H   82.022079   12.926229   80.296295
H   88.614624   27.390251   16.966507
H    5.945627   83.714005   83.471649
H   46.971424    6.037109   58.247627
H   59.971687   63.987694   90.967209
H   42.212936   89.853203   39.656750
H   39.523647    1.202469   88.487404
H   79.728668   41.069553   58.060291
H   30.432245   62.727257   13.087068
H   53.477371   76.082764   44.364868
H   38.932621   84.338402   92.816711
H   76.886879   28.075695   14.324148
H   74.732872   37.159721   74.682213
H   80.388344   18.894724   97.698853
H   91.285873    0.645483   62.340034
H   65.766319   51.977451   54.868923
H   46.080620   53.385475   72.276787
H   30.563461    7.061323    8.069870
H   51.937695   27.222771   43.298859
H   45.670246   73.554192   36.580849
H   95.337822   11.931986    5.766382
H   35.447025   11.886271   57.346809
H    0.501116   52.899567   33.862907
H   78.507408   41.153057   16.387718
H   19.199183   46.944336   98.575432
H   40.704319   87.419121   88.850342
H   84.414047   38.686390   10.863886
H    6.829052   73.840988   15.130178
H    9.367324   53.678772   20.045601
H   75.053612   64.773155   39.029381
H   21.557650   15.056447    4.990343
H   96.075493   74.206810   19.503826
H   77.240860   56.350773   63.303150
