100
TIME:    6.908, STEP:  6908
H   50.162186   88.524269   92.821548
H    9.694496   79.198799   13.676368
H   98.512085   70.893227   42.252903
H   82.636093   48.041290   61.513325
H   33.296722   26.464003   78.401337
H   20.893597   93.724144   62.869495
H   90.922073   27.798733   30.667749
H   76.931114   86.231750   73.924782
H   83.816048   22.117477   65.254280
H   86.077492   15.573584   78.193886
H   57.689697   44.200825   74.335381
H   92.180801   69.953003    1.210584
H    3.252914   43.848095   38.607841
H   13.038525   83.783485   82.941994
H   64.510567   52.976219   18.697414
H   23.768322    7.530066   59.616699
H   68.606819   38.880978    2.250838
H   48.791859   58.695740   60.057060
H   52.857876   68.154190   27.302311
H    6.405708   59.110683   86.661400
H   54.346207   68.504852   69.745689
H   24.657028   53.254456   30.998245
H   93.510445   38.439903   34.705399
H   77.205650   19.467989   94.025101
H   82.514961   38.321365   87.557045
H   15.035458   22.452690   40.809425
H   66.395363   55.321114   37.033749
H   49.664307   78.881798   95.113510
H   61.378716   75.839882   30.626486
H   65.876511   19.867119   32.554283
H   87.928658   41.509239   62.840034
H    1.932704   61.647717   59.755898
H   56.948215   63.060143   20.124151
H   69.981178   40.645676   80.728607
H    9.034805   36.637489   45.340385
H   73.138359   26.493202   97.707893
H   42.365997   51.549927   52.788670
H   78.471321   32.533092    9.920615
H   53.484913   30.901674   74.875900
H   12.537407   65.480408   81.541977
H   63.138687   93.214424    5.094844
H   18.045502   68.692871   32.626110
H   70.737518    4.926979    0.446949
H   38.244183   28.593161   56.162590
H   57.437126   59.335606   47.246647
H   88.955345   94.676376   11.225744
H   95.703415    0.517866   91.774315
H   56.609249   66.520142   96.005844
H   66.955086   60.328381   68.912979
H   70.774170   35.877613    0.524034
H   43.027256    2.720354   26.247017
H   40.856091   22.727913   20.569252
H   52.166157   62.063660    1.662265
H   16.720009   94.490952   36.646500
H   90.769333   63.990074   59.106113
H    2.199665    5.267178   57.462173
H   34.188953   90.218819   12.995827
H   11.671983   24.512308   35.622177
H   35.096138   30.652599   81.156990
H    3.163019   58.761044   67.130638
H   95.462151   57.316177   75.793350
H   53.739510   63.643387   82.789124
H   43.044834   35.893959   59.768158
H   17.399254   79.393890   39.588261
H    6.512285    9.113388   38.881306
H   76.978149   98.856316   54.638718
H   33.327194   87.189667    0.579645
H    3.182850   12.613021   96.444946
H    1.194520   53.421509   26.974743
H   70.337608   95.593681   87.186859
H    2.671445   25.381424   79.284065
H    4.391770   22.250652   62.403664
H   56.576828   76.610382   84.627502
H   78.135490   12.212532   92.704163
H   95.234001   38.490322   25.071613
H   88.966164   50.311504   31.109026
H   94.176361   27.895641   13.255846
H   56.530727   99.022591   95.941750
H   92.777550   33.227749   94.752342
H   60.750107   32.708717   25.790703
H   46.051903    0.748264   92.864471
H   59.666557   89.270157    9.081486
H   54.822708   22.644201   87.826187
H   25.409374    3.291361   32.478031
H   15.967115   16.785110   78.099297
H   92.301682   62.798943   21.495865
H   28.524492    1.084606   52.943489
H   67.128654   52.289410   23.952652
H   99.042587    9.546202   71.692268
H   55.579426   25.061794   71.159515
H    6.726552   46.443314   79.346115
H   89.420944   15.027129   65.147301
H   28.269474   34.793835   53.210823
H   14.898494   32.273155   92.594879
H   37.158058   30.953102   74.824982
H   64.494064   22.942190   10.641846
H   14.277994   64.115662   39.904175
H   24.943285   28.267578   40.203407
H   79.631950   66.632622   66.420830
H   68.292351    1.365151   32.270885
