100
TIME:    1.377, STEP:  1377
H   24.201284   95.743484   97.885330
H   62.966484   79.404518   64.860985
H    3.424289   72.971062    7.171563
H   81.707733   75.917381   64.686882
H   82.837387   83.130150   28.368172
H    6.663465   99.716286   15.114353
H   80.801292   54.320278   98.135963
H   11.656815    7.730583   81.762642
H   19.778709   53.900482   13.409396
H   37.209282   36.155037   61.614090
H   72.169846   21.648838    7.110220
H    3.282255   92.712761   94.913139
H   55.670387   78.396889   88.266350
H   86.900887    0.831751   62.031582
H   97.249199   47.026478   84.581497
H   46.158463   91.293571   18.737778
H   13.358587   73.060196   98.728386
H   30.570183   27.737320   51.808395
H   66.707710   36.120598   35.907894
H   55.417671   76.571396   10.085154
H   82.563507   19.132393   19.870495
H   94.383476   45.917419    2.005377
H   67.359093   83.423164   92.951782
H   91.103279   53.196690    4.805598
H   80.334831   76.965797   46.722084
H   40.345074   86.578644   60.105637
H   43.338699   85.237198   27.291288
H   16.354675   20.713406   12.288333
H   41.112579   74.024261   92.081413
H   53.793331   56.759232   92.856529
H   70.269020   45.527176    0.448679
H   52.701756   14.468751   71.788292
H   67.352859   67.734413   21.847990
H   36.283302   47.528847   13.740694
H   46.544334   54.829536    8.579124
H   92.279236   92.654068   15.906219
H   11.871575   54.107765   16.967352
H    7.078392   33.751133   19.612980
H   88.815506   51.113106   10.147471
H   33.495689   83.273277   46.373974
H   41.138084    3.431473   74.786057
H    7.864281   73.659477   67.493896
H   23.101744   71.757401    0.936045
H   91.429008   35.848511   15.370135
H   37.211075   77.560410   73.943680
H   60.322300   89.180946   88.762825
H   50.619923    0.020905   39.389595
H   56.312954    9.560911   53.778881
H    5.283349   18.406532   89.544876
H   54.769886   51.708218   87.355797
H   43.439564   36.703438   67.935730
H   72.052650   35.963558   83.664444
H   37.443748   29.993042   22.895229
H   44.803349   84.738731   92.580460
H   31.136986   79.220520   12.090931
H   95.289169   11.084785   45.750473
H   83.547379   49.814323   86.951530
H   23.523430   46.847237   78.086868
H   98.878868   96.949539    5.769901
H   68.149704   33.628834   24.444420
H   46.563213   14.535752    7.034716
H   50.038727   15.128254   33.049911
H   67.635071   13.252178   39.090675
H   37.595329   49.285027   89.754234
H   86.977791   50.865955   23.798178
H   16.753822   73.818336   27.604338
H   77.089127   95.970032   33.544689
H   85.246864   96.288620   32.031162
H   25.531364   50.843887   73.870277
H   58.279556   17.401827   98.833557
H   78.306023    1.709261   45.632481
H   60.426189    5.825243   57.440102
H   17.208759   50.193150   26.440166
H   99.883446   62.241745   21.369392
H   28.562977   30.603006    5.783479
H   58.214725   95.825096    3.275621
H   91.977531    7.197517   15.399542
H   96.674286   60.683380   90.486145
H   27.555780   49.468601   33.042854
H   31.994949   33.959404    2.291480
H   37.828800   43.527355   62.288616
H   44.640980   53.220413   71.633499
H    4.924873   30.239508   61.052311
H   44.895779   29.993265   37.656258
H   85.280624   62.753464   14.267635
H   19.598454   59.636265   37.406425
H   59.121437    3.233813   89.203690
H   78.122147   95.048813   81.429070
H   84.258736   17.503168   16.933765
H   44.593353   52.623238   73.440666
H   80.375038   47.785069   62.541454
H   80.171013   99.070076   59.757874
H   73.635078   68.888962   25.443632
H   80.320290   96.757515   19.663097
H   32.785786   26.386230   47.728050
H    7.656185   41.354301   96.324905
H   53.302414   46.703579   57.996628
H   11.921021   27.962006   34.004662
H   43.114830   42.785999   29.706287
H   24.757767   43.334080   65.061104
