100
TIME:    7.089, STEP:  7089
H   37.921707   71.925606   92.655838
H    4.696140   89.006096   25.088985
H    1.624045   83.915306   40.127666
H   82.666473   40.584320   51.591412
H   31.675383   40.971951   73.493546
H   18.086185   93.528053   80.793930
H   81.435150   40.021259   44.822186
H   62.704872    1.891258   57.306229
H   79.366722    4.714894   53.860455
H   81.133797   18.172533   85.280769
H   40.853516   51.483799   56.900444
H   85.273438   79.025650   88.326653
H   91.707634   32.896740   20.621498
H    4.076696   83.225594   96.715294
H   66.708992   36.808403    9.993473
H   16.490181   91.699036   44.592285
H   54.051918   50.852177   18.727991
H   52.662579   49.888229   53.783539
H   55.676334   75.746490   36.837566
H    1.529678   55.267582   98.984734
H   43.605408   50.485565   64.832375
H   42.009674   53.494736   15.584412
H   91.093834   36.967842   29.526617
H   60.388504   21.633272   80.583221
H   76.041206   23.966698   88.893776
H   14.182049   17.117504   23.776106
H   50.787029   47.796478   40.625523
H   34.392708   87.330269    1.095846
H   65.314339   92.261787   22.070993
H   72.817017   15.387365   46.943474
H   95.051445   57.739197   48.519890
H   13.360947   56.647404   42.999809
H   69.697639   49.817116   36.430061
H   77.628716   24.058060   73.103165
H    4.530031   22.933235   56.353226
H   88.872566   40.669998   97.138954
H   59.725548   44.921509   67.050812
H   70.989494   29.220264   22.692749
H   45.844280   26.958456   57.335449
H   95.489098   48.535252   95.782028
H   50.768402   99.425804    9.358782
H    2.791562   69.402664   41.865849
H   72.295197    6.012728   13.520468
H   26.687260   31.631186   73.859856
H   41.737442   52.194866   62.735054
H   86.618828   98.128677   11.961084
H   97.117477   10.361650   93.511513
H   56.620296   68.384384    7.204918
H   72.246773   45.338490   61.693085
H   74.574463   38.632549   87.869240
H   43.014828   85.246094   28.154758
H   49.653934    5.931799    8.688025
H   55.920879   63.113159   91.150581
H   12.528915   91.538544   44.633743
H   76.358047   79.851326   60.645840
H    2.425100    5.076783   51.300507
H   45.663021   84.996178   30.210442
H   98.194504    7.418591   30.960035
H   49.370712   38.301517   67.262169
H   91.218330   72.672958   61.982567
H    6.879810   48.899467   61.680573
H   47.315468   61.958664   74.600266
H   55.333645   23.542534   47.356445
H   29.828228   80.379868   34.673565
H   13.696559   94.657379   55.736820
H   65.858978   89.858238   65.340851
H   18.804808   93.447998    9.318686
H   90.679909   22.965090    5.097793
H   10.215836   40.416000   15.622209
H   74.005333    4.697159   86.805725
H   96.923836   13.066293   77.113258
H   89.496880   16.227768   75.668785
H   44.775482   67.659256   79.987610
H   74.150154    0.757211   81.949554
H    3.956337   38.753353   38.794361
H   93.244255   61.912617   18.929998
H   10.615142   12.229099   16.465796
H   65.034439   87.188103    5.937532
H    1.457829   32.696095   96.771248
H   51.873550   22.848305   10.197478
H   49.593964    2.621224    3.682464
H   73.248848   90.443939   93.938805
H   66.271645   25.671179    5.063154
H   37.861500   18.780170   15.947031
H    7.154081    5.462623   60.553322
H   88.136826   69.446945   34.065002
H   40.613071   87.924416   61.574242
H   70.039635   37.804935   22.075981
H    2.799076   99.468605   70.211922
H   39.575939   17.614491   77.630508
H   14.133839   56.216087   83.168503
H    2.813112   28.639576   68.596840
H   39.871967   40.224995   67.207832
H   32.391266   43.254234    4.799385
H   34.028893   14.739716   78.984314
H   79.443909   15.795226    1.292673
H   99.911247   74.502945   29.494629
H   24.593912   37.223133   36.570206
H   71.009483   67.414223   51.259922
H   79.535805   96.719986   14.834027
