100
TIME:    9.495, STEP:  9495
H   75.214020   51.284767   90.453079
H   38.246811   19.383587   76.795830
H   42.981197   57.012093   11.883154
H   83.070312   41.457207   19.708872
H   10.115881   33.823105    8.257969
H   80.779175   90.921455   19.067188
H   55.335896    2.484885   32.974545
H   73.598022   10.040667   36.394516
H   20.222649   73.386383    2.410364
H   15.415842   52.719135   79.488380
H   17.053253   48.292923   25.140783
H   93.442314   99.626091   17.064575
H   38.285095   87.268898   81.520386
H   84.946198   75.809639   79.814049
H   95.932259   21.892616   94.286644
H   19.749767   81.261459   44.873108
H   60.575600    9.992006   37.755661
H    4.111929   32.812080   70.381424
H   93.155869   76.681015   63.593304
H   36.703304    4.176935   62.796349
H    0.829486   10.960236   99.532974
H   72.675247   56.688736   10.691284
H   58.970268   17.406851   60.687531
H   36.835339   50.415985    1.892403
H   89.989365   33.159630    6.659450
H    2.835532   46.190903   97.359825
H   43.314674   47.781826   88.360947
H   31.381433   99.634216   80.627251
H   17.630993   10.552885    8.338757
H   65.073463   55.838272   38.213448
H   89.743401   73.490173   58.164917
H   65.277420   90.175613   20.264336
H   39.172646   73.783127   53.181541
H   79.288208    3.562654   71.742302
H   44.651512   40.765236    2.735396
H   98.021973   29.122152   89.576149
H   90.493103   56.807869   56.634174
H   71.544502   85.191185   92.477470
H   44.285824   74.537498   24.176182
H   68.869751   23.292633   85.081741
H   86.335815   81.978500   66.042564
H    0.026850   78.837814   64.695763
H   93.001129   20.446800   87.306541
H   73.062294   72.022560    9.104846
H   33.035271   57.281239   68.626907
H   55.564919   44.013409   21.735826
H   15.925269   41.210606   16.613512
H   56.767147   93.165421   56.073963
H   42.577339   46.073833   65.716766
H   25.083395   75.259056   19.642159
H   44.151279   53.061272   51.522186
H   66.586060   82.673798   50.748512
H    5.817871   77.063965   51.418602
H   56.805626   52.287247   50.803963
H   84.788582   90.701096   81.097794
H    5.421770    2.545905   69.394577
H   98.194611   15.572535   59.040977
H   19.038691   80.201347   68.985619
H   39.129848   39.967979   82.554482
H   32.446728   57.606464   93.550209
H   58.655819   37.009800   74.095924
H   61.921806   39.563950   65.738533
H   18.675808   59.361351   82.369812
H   95.044250   93.486282   69.352875
H    9.194980    2.492417   79.796471
H   18.056690   70.249046    7.603086
H   25.767143   76.627594   25.481186
H   24.481323   60.566719   20.118515
H   30.131472   67.536194   64.724457
H   22.863495   25.553926   81.704880
H   20.515751   49.358578   48.257118
H   91.377159   36.329491   52.024715
H   87.900314   48.647900   18.296635
H   21.188648   48.480976   38.992439
H   19.854380   42.296124   21.218740
H   50.127274   16.112797   57.035263
H   29.131660    3.983157   59.140907
H   78.064400   29.873604   38.823753
H   16.834044   25.628910   23.621645
H   33.881096   91.781166    2.918567
H   96.696007   27.512491   47.486641
H   53.792320    6.053037   92.652275
H   18.452860   65.908241   34.198986
H    3.390409   24.667107   96.196404
H   90.004028   54.949760   27.319963
H   32.763798   57.822975    1.144694
H    1.304430   12.988240   76.301384
H    8.734112   45.277443   97.131790
H   52.733402   65.505836   50.533943
H   26.853048   18.625511   63.637421
H   12.597702   86.132538   33.979149
H   80.832748    9.594418   14.445458
H   94.101425   12.411207   53.267509
H   63.617226   89.124069   69.030449
H   92.426819   99.224556   34.269569
H   78.169647   20.784899   77.019730
H    8.934159   12.577195   91.121643
H   19.949762   56.271778   88.264183
H   56.393089   77.803902   49.732441
H   28.982529   34.977947   83.056595
