100
TIME:    2.600, STEP:  2600
H   41.494537   83.588127   96.765640
H   28.946571   45.713142   42.007160
H   24.446447   60.958359   92.817146
H   81.913010   25.530733   97.647644
H   71.883087   81.158981   95.208755
H   87.701424   98.391319   36.232471
H   16.704815   36.902328   93.776237
H   15.531425   13.535540   69.471413
H   89.714973   36.314072   36.426151
H    3.790476   53.715508    9.501651
H   58.409363   70.859207   89.304291
H   56.607742   54.015182    7.858540
H   77.875725    4.403679   66.709282
H   26.344322   97.061928   55.102177
H   12.125732   37.784454   25.792204
H   96.983368   84.323517   17.218817
H   15.030742   53.939423   10.076608
H   56.705612   68.262611    9.406982
H   85.761101   87.426132    0.341937
H   22.470795   50.599407   93.352760
H    9.988937   97.378510   86.674500
H   11.644882   47.535522   97.864288
H   51.030281   73.476585   57.961472
H   77.473328   67.864624   13.974586
H   36.592278   79.969482   55.744919
H   34.737293   50.136288   45.473412
H   37.877823   34.397839   51.560566
H   13.161787   77.798927   52.715343
H   67.705215   84.984505   34.268089
H    0.689635   26.490280   90.081474
H   18.380880   55.201893    3.675223
H   29.922646   80.676048   58.569038
H   53.498829   78.254097   32.025490
H   87.956993   35.448196   62.217056
H   16.142319   62.380066   83.050224
H   98.613846   88.728203   11.702226
H   29.173168    9.317804   13.335023
H   56.526764   11.366665    5.917057
H   35.326233   24.766527   92.353226
H   18.302839   68.780739   42.596958
H   57.558544   45.394901    3.600188
H   97.947960   28.547287   24.951151
H   33.636158   79.091370   89.274254
H   13.331751   56.348167   34.948395
H   31.125193   29.308483   78.599831
H   44.544003   12.507801   93.726784
H   62.045261   66.234528   50.416298
H   56.378269   22.152758   29.451164
H   41.029541   17.117870   40.759270
H   80.414146   70.319893    1.818202
H   43.346256   18.630354   80.830826
H   31.487059   22.478241    3.375692
H   62.814056   37.084412   51.866440
H   16.484524   64.789589   46.546783
H   33.774414   86.435089   22.467604
H   96.819412    9.799475    4.116669
H   61.079037   14.525331    3.269013
H   32.455170   31.350025   46.586258
H   95.333992   48.625439   11.879427
H   87.445755   27.632559   89.660408
H   23.710810   57.658337   11.679997
H    6.634808    3.742407   77.713501
H   50.589748   29.853189   55.188156
H   21.576300   55.937851   56.553333
H   35.520245   53.187016   37.694038
H   41.623024   13.019173   99.917641
H   78.965462   38.251408   92.589676
H    0.765837   66.233948   90.497635
H   86.485710   62.966911   97.164192
H   83.059875   78.916084   96.258270
H   39.471443   18.495588   30.960991
H   59.584335   65.236145   46.981964
H   37.467255   89.700310   95.081047
H   72.973564   84.846573   48.682823
H   87.527977   32.344112   98.495102
H   87.123253   74.209221   20.982914
H    3.017694    1.195747   37.032200
H   54.133053   80.713554   58.029675
H   86.192200   45.881710   46.688324
H   72.016426   67.353973   96.928970
H   61.762173   56.179852   35.384144
H   36.404831   61.207535   69.367043
H   82.302994   50.654785   77.537079
H   29.026814   34.646942   25.948517
H   25.731289   86.252777   95.711693
H   91.450745    4.555912   22.335262
H   40.802849   14.311752   47.521393
H   97.810028   97.132294   68.706306
H    9.639648   49.408043    6.928527
H   36.463459    2.302505   17.162037
H   30.425354   13.824739   88.368973
H   70.664749   91.043266   83.064384
H   52.104801    5.539141   20.058350
H   98.527016   70.943108    2.123799
H   11.637814   16.837044   75.832268
H    8.670974   93.060677   33.155731
H   56.226456   16.888973   87.661003
H   16.411230   38.375122   14.434078
H   84.855553   48.057873   27.260628
H    0.710073   11.920126   47.268707
