100
TIME:    9.834, STEP:  9834
H   52.288483   20.197155   90.142715
H   28.884602   37.754536   98.169548
H   48.808277   81.401512    7.903385
H   83.127213   27.490419    1.126711
H    7.078196   60.995453   99.066628
H   75.523682   90.554192   52.640289
H   37.570156   25.376787   59.484783
H   46.953293   39.367588    5.267839
H   11.889381   40.793015   81.072685
H    6.155363   57.586674   92.761604
H   85.520233   61.933411   92.486259
H   80.505318   16.617825   92.934608
H   16.668259   66.748680   47.831642
H   68.160690   74.764748    5.610989
H    0.049759   91.611481   77.982201
H    6.118377   51.611374   16.732758
H   33.315315   32.413376   68.616165
H   11.361510   16.316246   58.630165
H   98.437225   90.900848   81.462845
H   27.570850   96.977264   85.877068
H   80.712723   77.212715   90.330688
H    5.175507   57.138763   81.822357
H   54.444130   14.650763   50.988663
H    5.337097   54.471405   76.716599
H   77.864487    6.274368    9.161758
H    1.236350   36.197189   65.459602
H   14.081787   33.688725   95.085495
H    2.777832   15.457585   91.831383
H   25.002132   41.309147   92.314163
H   78.072533   47.448105   65.163368
H    3.084314    3.890084   31.344315
H   86.682175   80.807800   88.881462
H   63.052551   48.979889   83.721336
H   93.611496   72.495293   57.460396
H   36.214790   15.098152   23.361311
H   27.489809   55.676220   88.510567
H   23.007889   44.393318   83.346146
H   57.532772   78.989082   16.399681
H   29.975468   67.150841   91.325111
H   36.940685   91.556366   11.752904
H   63.167160   93.611969   74.029259
H   71.457726   80.171158   81.995354
H   95.918549   22.480976   11.793310
H   51.418087   77.712563   42.249111
H    3.609609   43.874973   97.624298
H   51.191376   50.479321   23.113066
H   18.576275   59.648800   19.868452
H   56.787838   96.657013   77.049377
H   52.485703   17.998844   52.192993
H   32.198486   80.421440   95.939308
H   46.039326   20.475662   52.158432
H   83.061203   51.217377   28.495226
H   12.849550   79.029602   31.728626
H   48.956009   46.755013   65.763496
H   57.797279   20.409311   83.979004
H    5.843994    2.189310   57.854218
H   19.685387    5.790330   91.282600
H   93.796341   48.187325   60.254051
H   65.867683   54.293854   56.529736
H   10.077087   83.662140   83.908241
H   80.040527   21.245024   47.666851
H   49.890038   36.408585   50.399094
H   41.710964   36.261070   59.138626
H   18.322880   95.332947   60.149506
H   22.650543   75.418129   11.365949
H   97.232025   53.396294   27.647684
H   98.567726   88.348999   41.848217
H    1.063967   79.954109   36.324677
H   47.028191   43.177811   43.462040
H   29.748398   42.579967   80.985870
H    9.749632   26.290791   44.191353
H   63.459991   25.073631   76.873260
H   65.797241   31.880487    9.603863
H   13.726986   27.026779   18.850676
H   36.183723   42.795292   46.922031
H   58.142418   37.839901   34.226112
H   59.919868   74.643112   65.153709
H   93.991234    7.708454   57.546448
H   33.089348   24.633160   27.405497
H   17.257092   73.314522   73.713387
H    3.332313   31.019602   67.748222
H   79.230766    8.253747   64.290199
H   39.895592   71.577553   66.484375
H   26.712952   53.676102   65.232445
H   73.497849   33.744156   94.458374
H   24.960735   70.275017   24.686176
H   23.945543   88.339928   92.466164
H   14.185522   18.150988   93.619507
H   59.768314   46.630547   47.761360
H   96.880768    4.677246   75.757050
H   26.471121    4.438331   41.138206
H    5.915315   35.089828   20.903612
H   15.831704   22.583380   79.482903
H   94.467384    9.546506   94.826851
H   86.566116   68.860634   42.059700
H    6.169701    7.398767   59.510040
H   82.025841   32.030655   71.625626
H   19.295412   73.045746   81.456871
H   40.243828   79.267784   21.336742
H   50.038124   26.279152   50.400074
