100
TIME:    1.097, STEP:  1097
H   43.136391   21.420723   98.141678
H   70.755180   64.224464   47.198635
H   98.612427   52.826412   10.459290
H   81.660736   87.453026   80.033562
H   85.345322   60.686913   35.960335
H   11.005436    0.019723   87.385216
H   95.477196   35.412502   76.239601
H   33.664261   83.506302    7.470507
H   26.661644   80.821259   31.034445
H   44.861259   32.134651   50.648819
H   98.214767   10.382625   34.081116
H   13.969807   78.677727   14.843458
H   73.481277   95.337196   16.096289
H    0.764990    1.694988   40.722683
H   93.844048   72.036011   98.039749
H   57.416397   15.784679   41.979965
H   35.869362   54.543350   73.234612
H   24.586601   41.353653   61.515427
H   62.346336   24.373468   21.157221
H   62.960701   82.518661   91.021538
H   99.179108   47.008064   27.470135
H   67.535332   45.547852   25.847599
H   71.097496   85.700386    0.962715
H   17.118378   49.838535   25.601555
H   90.349480   99.174049   44.656349
H   41.628948   94.922760   86.351044
H   67.484207   96.875381   21.734953
H   39.979248    7.643613    3.033244
H   35.024323   48.620213    5.317164
H   43.056637   63.689163   70.597008
H   59.254612   20.417429   22.604664
H   35.022312   22.204147   97.709312
H   47.629406   88.220863   96.623375
H   24.452858   73.189247   25.535994
H   53.504173   75.995308   91.528793
H   67.934753   70.659439   16.869711
H   85.015434   64.361671   94.904732
H   18.650764   38.875950   99.854637
H    1.402340   57.090279   36.984818
H   59.867455    9.485407   24.343401
H   60.272301   93.823174   68.189377
H   33.029076   61.093674   54.338993
H   20.689939   70.078323   80.710274
H    9.308821   31.155405   87.992805
H   61.497879   88.608994   49.982468
H   63.934666   83.840370   87.626350
H   47.663380   84.917755   36.997017
H   56.298000    6.678068   36.454052
H   97.098564   41.595314    0.713184
H   48.897388   47.446438    6.940064
H   43.460926   63.735298   64.983459
H   58.444862   61.946529    2.044796
H   31.635340   28.369507   39.157753
H   51.286808   89.305992   80.224503
H   53.428551   54.674419    9.714909
H   94.938828   11.379051   55.282333
H   65.795303   57.893547   60.321281
H   44.373474   73.289497   85.298782
H   76.794518   85.119095   27.265720
H   86.628098   12.106314   32.408287
H   28.900671   27.556137   28.865074
H   59.976471   17.734634   45.719894
H   48.642258   32.346855   58.299660
H   18.367876   47.761894   97.354942
H   75.865120   73.229271   97.722374
H   33.954750   87.738014   11.048712
H   99.553726   86.288635   20.025677
H    4.588422   80.275436   18.645544
H   11.575541   70.962906   91.430092
H   52.607864    3.318335   99.423157
H   87.197014   20.761232   48.990635
H   83.514236   15.118380   36.938698
H   35.465851   64.042336   33.620037
H    6.045976   79.959854   38.010628
H   15.063106   30.204599   84.557671
H   51.594547   77.880760   22.115807
H   66.556389   31.466154   10.445089
H   83.519379   78.991264   75.024109
H   14.133844   50.288914   29.920399
H   45.726639   49.209953   26.413544
H   32.349369   40.630627   45.553387
H   23.631580   51.391800   95.046585
H   87.207344   25.566504   34.383610
H   25.633390    6.033303   63.231209
H   98.914047   80.266434   41.410545
H   26.043461   49.350315   17.962456
H   40.420876   23.592094   75.852249
H   73.614700   17.465958   84.338615
H   78.448189   33.092384   19.224873
H   69.348068   64.143951   63.430294
H   68.916298   32.666965   56.628368
H   59.453846   78.011116   54.423706
H   55.669380   60.498741    3.781488
H   53.257675   79.774483    0.784260
H   37.626484   51.467712   41.293724
H   84.529266   52.411430   10.787550
H   75.527756   30.634855   74.099533
H   10.892961   25.577972   38.484337
H   56.453453   41.579029   53.159962
H    7.368851   50.526768   92.028877
