100
TIME:    2.181, STEP:  2181
H   69.830231   22.012405   97.149246
H   40.601799   22.994715   15.576725
H   17.244246   30.813385   97.733696
H   81.842682   42.793602   20.614742
H   75.636032   47.574284    6.569420
H   94.197151   98.845253   94.737236
H   38.664173    8.608400   61.009895
H   48.463997   77.285736    7.941193
H    0.014792   76.599091   62.802258
H   15.239515   47.699287   93.094414
H   97.383728   53.999729   29.664843
H   72.599197   33.012756   37.682610
H    4.529596   29.754005    8.355677
H   47.091011   98.353401   23.214931
H    7.028644   75.211609   45.934219
H   13.831223   20.971016   51.999771
H   48.718307   26.230019   71.927872
H   47.751610   88.638481   23.934460
H   79.233406   69.850586   78.265457
H   33.758400   59.495869   64.825264
H   34.852997   39.092205   98.048416
H   71.474945   46.979294   33.545959
H   56.624535   76.884285   69.949158
H   16.403023   62.839390   45.094566
H   51.578484   13.201279   52.653694
H   36.658520   62.619465   84.746758
H   74.009422   51.816746   43.245907
H   48.515060   58.241421   38.863972
H   58.594574   46.969154   54.074944
H   84.622978   36.860428   56.771694
H    1.896316   17.627329   36.829128
H    3.466935   92.254555   97.357994
H   23.983982    8.910240   94.278656
H   70.253578   73.847153   79.869324
H   26.558819   94.053131   57.534843
H   62.184063   55.814014   13.142346
H   88.985291   24.663641   80.319641
H   73.845192   19.035587   76.347984
H   53.013664   33.895081   32.956718
H   57.766857    8.004939    9.630308
H   86.194008   31.019159   93.727951
H   35.605347    9.741271    5.266991
H   30.027067   76.578751   59.008270
H   40.087151   49.324982   93.980759
H   67.469002   45.838703   42.745384
H   49.949650    4.516010   92.026131
H   58.768627   43.448334   46.391632
H   56.355892   17.838789    3.525860
H   28.782919   51.818226   57.474899
H   71.629570   63.945614   31.122570
H   43.378223   59.082130   76.412964
H   11.125574   61.359509   30.883373
H   54.122185   34.654907   76.201439
H   26.186558   71.624168   28.057318
H   67.131851   49.703571   18.912855
H   96.295151   10.239822   18.380417
H   34.517521   26.615410   63.418694
H   63.655121   70.919006   57.378372
H   62.286507   30.921926   44.046982
H   15.095947   95.426102    1.577675
H   97.279404   77.144478   44.347347
H   21.504333    7.643200   96.670029
H   22.168297   58.425560   83.933029
H   92.804565   53.658592   67.929344
H   18.888988   86.651276   98.673141
H   67.362984   33.848976   75.143089
H   12.582708   23.766176   72.360855
H   29.709328   42.271362   70.467010
H   65.604759   93.073586   23.443588
H   74.569397   57.842400   97.140564
H   52.776176   47.004662   35.989094
H   94.134033   79.141861   16.303896
H   64.786392   10.426212    5.823681
H   82.192894   11.361045   73.585243
H   67.324730   31.747004   66.732529
H   77.219826   47.354820   49.175381
H   64.976624   37.512299   29.621698
H   34.447674    8.109976   34.888645
H   66.097641   47.112446   42.011528
H   92.564919   90.172134   33.026009
H   53.562595   51.845104   10.342268
H    4.965406   58.471146    4.403234
H   55.794834   43.660370   37.629276
H    0.202352   98.792580   64.219604
H   46.133224   12.460634   36.328873
H    1.092362   89.166405   93.238396
H   12.818792   44.776459   27.541914
H   91.064957   30.678268   73.066628
H    0.943439   72.737679   10.356331
H   73.509384   19.542397    2.184429
H   13.278168   91.199463   79.520462
H   39.660488   59.535976   75.078987
H   25.220821   92.983444   87.643051
H   58.030544   45.526890   73.871361
H   18.883171   54.369690   66.203758
H   74.063232    9.606401   54.797501
H   89.485092   92.843773   11.758144
H   14.873025   34.807587   21.139004
H    4.815657   46.251728   62.357376
H   74.688797   22.682175   87.624054
