100
TIME:    9.160, STEP:  9160
H   97.869049   82.006050   90.759781
H   47.498978    1.229806   55.673298
H   37.222874   32.910454   15.815964
H   83.014084   55.258781   38.071777
H   13.117723    6.971578   17.340717
H   85.972656   91.284386   85.891541
H   72.893303   79.865379    6.777111
H   99.928360   81.058090   67.153877
H   28.457588    5.595325   23.497454
H   24.567053   47.909031   66.371773
H   48.214142   34.813385   57.410637
H    6.227905   82.834175   40.909828
H   59.646866    7.546265   14.812214
H    1.533584   76.842201   54.321056
H   91.863350   51.816475   10.397209
H   33.220245   10.561915   72.680725
H   87.514229   87.833763    7.259290
H   96.946732   49.113274   81.995193
H   87.936829   62.628719   45.945179
H   45.728001   11.291136   39.987968
H   20.709328   44.310776    8.626289
H   40.558468   56.244019   39.219650
H   63.443001   20.130106   70.271957
H   67.962677   46.408417   26.772581
H    1.971057   59.727661    4.186668
H    4.415802   56.066696   28.884882
H   72.202690   61.708637   81.715744
H   59.646576   83.997543   69.555321
H   10.346334   80.158989   24.173508
H   52.227776   64.129440   11.582500
H   76.560341   43.450497   84.669052
H   44.125233   99.432892   51.276985
H   15.574520   98.293701   23.002096
H   65.133926   34.263275   85.855690
H   52.988686   66.129463   82.354797
H   68.900650    2.882539   90.629158
H   58.361443   69.075935   30.237387
H   85.392082   91.320107   68.835884
H   58.427326   81.836998   56.640244
H    0.424222   54.655434   58.725334
H    9.230688   70.482300   58.150112
H   28.259094   77.524109   47.594486
H   90.118134   18.436626   63.107876
H   94.449623   66.399696   76.349800
H   62.092697   70.496269   39.958385
H   59.886856   37.623791   20.374838
H   13.306165   22.990602   13.396461
H   56.746700   89.715027   35.346043
H   32.785889   73.818459   79.078735
H   18.052259   70.157585   43.065823
H   42.872623   85.304344   49.989624
H   50.305309   13.758644   72.739021
H   98.869545   75.121521   70.875259
H   64.562805   57.754204   36.020943
H   11.461853   61.344406   78.250580
H    5.004528    2.898293   80.798767
H   76.955521   25.238777   27.179785
H   43.983093   11.838030   77.614159
H   12.708435   25.811701    8.271826
H   54.552250   31.856304    3.078392
H   37.521519   52.587688    0.211589
H   73.811607   42.682083   80.894707
H   95.932739   82.220848    5.341766
H   72.041626   91.661407   78.446579
H   95.898544   29.249516   48.599796
H   38.635506   86.902946   87.795052
H   52.644730   65.044495    9.306507
H   47.621964   41.408089    4.103577
H   13.434219   91.607162   85.733521
H   16.059830    8.728508   82.415405
H   31.154465   72.153267   52.274910
H   18.963743   47.452538   27.470455
H    9.742752   65.217644   26.886837
H   28.562267   69.682411   58.897377
H    3.718037   41.802845   95.819107
H   42.206703   94.642693   79.577042
H   98.705887   32.979198   53.198563
H   62.325764   51.777214   20.321976
H    0.770050   26.612911   19.882441
H   50.310081   10.030401   31.778954
H   90.137703   24.046762   27.464134
H   28.655392    3.878330   20.678675
H   97.263664   60.305820    2.294403
H   80.341972   95.999977   26.793018
H    6.315445   75.906601   59.794373
H   40.474789   45.516571   77.881348
H   78.930534   37.345543   60.327339
H    3.346769   72.083168    0.603069
H   45.781498   84.158409   53.273811
H   56.472538   32.409195   51.663277
H   98.887596   68.042252   26.904564
H   56.046139   84.399200    8.063508
H   72.627197    2.359086   27.361444
H   32.543953   68.899521   44.442272
H   98.218369   29.232616   26.572260
H   50.500046   34.012878   94.322815
H   35.524254   93.352531   10.387966
H   20.596392   39.697109   94.991173
H   72.351799   76.357292   77.791832
H    8.175137   43.573261   15.327654
