100
TIME:    0.491, STEP:   491
H   84.118324   76.994148   98.696487
H   87.612144   31.365948    8.972470
H   88.200500    9.228656   17.574722
H   81.559021   12.420603   13.249440
H   90.773209   12.113336   52.391945
H   20.402523    0.679257   27.370672
H   27.237617   94.491646   28.849611
H   81.294662   31.079700   63.113106
H   41.558281   39.085815   69.181541
H   61.422325   23.435665   26.916842
H   54.583405   85.999084   92.453957
H   37.100742   48.301903   57.978981
H   12.030324   32.001343   76.327049
H   30.770359    3.563401   94.604698
H   86.474327   26.165537   27.170019
H   81.781784   68.791695   92.282700
H   84.590889   14.467606   18.059385
H   11.636811   70.823288   82.524216
H   52.909950   98.949692   89.230881
H   79.358467   95.237396   49.685036
H   35.139908    7.336173   43.916252
H    9.428142   44.748001   77.448311
H   79.188469   90.628944   18.301823
H   73.422302   42.570530   70.609802
H   12.022955   47.234524   40.184341
H   44.407619   12.979510   43.151825
H   19.738913   22.066353    9.709455
H   91.112022   79.357407   83.004318
H   21.847595   93.639610   33.961731
H   19.820574   78.687515   22.421505
H   35.416294   66.073051   70.558250
H   96.759521   38.945526   53.809746
H    4.942598   32.557823   42.030113
H   98.847679   28.725372   51.065895
H   68.567253   21.804489   54.625885
H   15.245603   23.056341   18.954870
H   26.892632   86.554054   47.154125
H   43.695793   49.967518   57.088810
H   28.646309   70.026588   95.066284
H   16.947071   66.218346   76.665581
H    1.688229   73.027061   53.909008
H   87.492882   33.894135   25.868017
H   15.470223   66.444321   36.938660
H   48.005432   21.000078   28.739269
H   14.065220   12.519509   98.123230
H   71.680580   72.434380   85.243752
H   41.264576   52.228558   31.818792
H   56.265636    0.438636   98.958267
H   79.381645   91.785019   24.887392
H   36.187626   38.222729   49.322906
H   43.507160   22.240831   58.593906
H   28.993956   18.177479   41.829193
H   19.064280   24.855713   74.354439
H   65.318436   99.190849   53.482685
H    1.670388    1.548036    4.572517
H   94.180588   12.015926   75.912003
H   27.379150   75.379295    2.685553
H   89.497986   30.518044    0.907501
H   29.001060   59.514633   73.789917
H   26.617912   65.528854   49.644371
H   90.673019   55.735840   76.112915
H   81.484589   23.375198   73.139816
H    7.536631   73.670921   99.873390
H   76.756050   44.465401   13.808928
H   51.811783   21.628483   41.287132
H   71.182472   17.864033   75.217613
H   48.175041   65.335327   90.767258
H   46.449120   45.618332   89.675240
H   81.373955   14.506187   29.437672
H   40.332703   72.840477    0.698265
H    6.440258   61.996822   56.258640
H   33.482098   35.230278   92.570168
H   74.977539   94.020546   49.159328
H   19.383659   18.307913   74.027016
H   85.844772   29.342333   38.619434
H   37.266590   39.041122   62.890247
H   11.534225   83.988152   99.722229
H   55.048401   18.615089   41.556744
H   85.087471   52.064304   23.163280
H   75.445938   82.213951   78.621124
H   20.490314   34.361279    9.334801
H   78.163719   47.434158   45.722267
H   48.862583   15.452725   76.665222
H   83.946198   54.177097   18.582710
H   28.422388   18.170937    0.155627
H   39.992298   27.089092   75.879738
H   99.947487   67.653221   46.955914
H   63.859299   65.983360   90.635704
H   65.872505   66.834053   24.183483
H   22.925152   89.082642   41.764980
H   44.116306   99.944931   43.830761
H   14.615948   32.433510   42.879044
H   16.787380   42.342598   56.899986
H   94.684334   43.015709   59.923046
H   48.103138    5.748090   27.368774
H   34.476196   76.342216   42.088249
H   23.628996   95.858040    8.951021
H    8.667943   20.418243   48.179634
H   85.322044   38.966801    3.923732
H   69.734238   66.093178   50.395859
