100
TIME:    0.138, STEP:   138
H    7.990304    9.366014   99.019669
H   97.431465   12.226891   86.705536
H   82.135468   83.832268   21.719521
H   81.499771   26.965101   32.598701
H   93.934998   83.818832   61.963493
H   25.876404    1.063455   92.411888
H   45.737392   70.657036    1.244277
H    9.039770    0.541497   95.522865
H   50.235695   73.025223   91.400246
H   71.069283   18.368454   13.092768
H   87.418610   71.795273   26.456940
H   50.574703   30.607735   83.106316
H   34.484413   53.358231   11.413152
H   48.249073    4.651781   67.742958
H   82.181404   57.694801   44.139339
H   95.974579   99.666573   21.584499
H   12.971197   91.123268   85.919456
H    4.093724   87.989594   94.762009
H   47.413177   84.142609   70.631805
H   88.913857    2.638727   25.602655
H   56.087433   42.479424   53.495880
H   75.580116   44.282082    7.504749
H   83.901527   93.499870   28.402580
H    6.219864   38.336857   96.825180
H   24.647219   75.229012   37.577347
H   46.022785   23.500946   76.236382
H   50.179340   36.740559    2.704758
H   20.896751   62.880550   71.337479
H   14.171882   61.612362   50.648651
H    6.285533   87.424179   94.359612
H   21.530275   34.417458   98.491875
H   74.470795   48.697517   86.488747
H   80.078796   58.385384   10.229085
H   83.932869   61.075806   65.937614
H   77.341621   48.488480   33.131645
H   84.553520   95.326286   20.169493
H   93.035408   99.481056   19.338860
H   58.284729   56.428448   32.179623
H   44.516911   77.562096   28.900009
H   50.194942   99.263618   48.892082
H   25.811008   60.913837   45.589787
H   19.218521   18.050180    9.283710
H   12.430301   64.327484   11.441393
H   70.547318   15.084516   94.224625
H   44.684731   26.447102   67.916565
H   76.188957   65.798393   83.859459
H   37.537220   33.185108   28.802435
H   56.246784   96.802994   77.116608
H   69.061394   21.020275   38.969330
H   28.784086   32.849842   74.012344
H   43.530895   56.321526   54.877438
H   11.839768   50.934013   65.003860
H   11.741924   22.808899   94.854897
H   73.489532    4.950610   37.905354
H   29.773354   70.603363    1.577168
H   93.738907   12.387226   87.928955
H    5.001219   85.564888   69.112373
H   15.783890   63.854179   10.000338
H    1.161680   44.599823    0.888705
H   49.914368   38.395210   59.679039
H   68.405838   72.152084    3.636901
H   94.013245   26.660873   89.110352
H   83.593666   97.742531   24.090790
H   52.516190   42.545166   23.393942
H   37.799187   49.822849    8.412496
H   92.867928   35.412769   54.345501
H   76.496483   53.132252   73.724838
H   70.833138   25.429844   72.799797
H   63.782097   39.870522   51.578274
H   33.182320   55.085709    1.440572
H   17.650557   86.014793   60.492313
H   62.587254   46.945595   66.726448
H   97.993423   11.481327   58.211094
H   27.153473   40.646984   95.006859
H   68.823898   28.840055   11.859124
H   28.920439   16.416677   86.643936
H   79.484863   14.583214   93.474060
H   38.463821   41.696888   22.061131
H   68.168938   53.096096   19.227203
H   92.757675    1.437956    9.032345
H   13.582554   30.708857   88.236786
H   51.678226   45.128799   75.241150
H   26.527744    9.560729   43.043610
H   59.664040   23.970432   50.825417
H   45.611130   40.252853   34.374626
H   48.121067   14.119334   51.367580
H   76.371422   93.319191   30.123562
H   58.176697   94.245552   94.303810
H   58.547066   86.488853   27.071915
H   54.134071    3.609003   29.145060
H   29.670107   80.882629   36.376049
H   88.497231    5.885503   36.154182
H   94.138741   31.766466   29.591059
H   60.566902   21.602919   36.123447
H   54.205875   37.368649   19.258274
H    5.319839   90.282097   60.321053
H   51.648399   75.599968   29.252419
H    7.372015   17.412659   53.827225
H    2.138149   37.445156   33.492161
H   47.811779   75.158409   84.394516
