100
TIME:    3.910, STEP:  3910
H   52.904694   63.454407   95.566299
H   92.505760   16.737993   24.641279
H   46.964073   55.204887   77.445595
H   82.132889   71.558037   25.842222
H   60.149536   86.161247   59.688278
H   67.392586   96.972099   65.967308
H   48.046535   25.359295   96.220024
H   12.568008   26.866772   49.191296
H   57.512672   10.362879   53.967297
H   67.990685   72.525169   60.803452
H   36.556351   23.569630   63.117542
H    6.605225   19.678492   14.611063
H   94.547653   25.147125   36.506897
H   61.480583   93.024147   54.793743
H   28.061974   20.770363   62.824070
H   44.312317   69.746147    8.476801
H    9.688212   40.586399   29.331076
H   84.692833    4.557243   63.990902
H    6.168020   42.383461   69.354889
H   87.176567   22.783037   82.543633
H   32.251770   66.965332   51.117668
H   37.235855   49.274567   86.305679
H   33.539894   62.822441   20.480534
H   55.760139   83.575989   16.682034
H   89.740631   76.077347   65.416054
H   28.727873   11.105376   22.686556
H   24.914808   79.943802   77.551064
H    2.627959   38.945282   96.014153
H   96.189560    3.838051   72.344582
H   50.919632   94.066887   94.222778
H   69.940071   72.672157    0.032189
H   12.636895   44.481339   37.295753
H   45.772907   82.408348   50.040634
H   43.308746   15.394461    7.029629
H   83.578720   63.354088   62.818520
H   12.521769   91.636383    7.190292
H   54.818283   61.343246   16.557852
H    2.385892   87.395485   98.360207
H   80.030823   96.226555   65.404198
H   94.915337   46.142448   45.665272
H   68.030991   90.346054   34.463604
H   80.212601   87.341003   86.496750
H   44.919956   86.947052   83.896904
H   29.678545   78.299591   63.032837
H   17.492476   77.621826   90.699646
H   27.643291   37.494068   99.043861
H   72.281540   37.477501   62.999382
H   56.448231   35.641693   10.506523
H   79.322495    8.624115   88.502533
H    7.881907   90.248940   10.194622
H   43.246311   92.157906   94.643234
H   95.152023    0.920062   17.377171
H   89.979561   44.680237   75.783516
H   86.146629   43.411705    4.354647
H   29.473770    1.250812   33.602802
H   98.458511    8.421164   59.521179
H   44.128201   76.725212   27.861090
H   34.909172    7.636175   12.842199
H   98.651039    3.975280   11.309902
H    1.000123   28.323637   52.400887
H    6.346092   96.739891    9.542173
H   60.141075   91.548355   18.438393
H   39.510258   40.472099   65.350029
H   11.531725   63.063934   20.982883
H   87.517143   48.559200   59.690449
H   61.147652   47.895088   77.373520
H   73.861771   83.540833   55.837322
H   10.275393   41.154800   53.123211
H   51.777260   68.838669   15.003414
H    9.603388   44.804703   93.499786
H   97.871422   29.363811   15.244629
H   51.569191   21.760040   42.893848
H   52.052414   24.901958   61.498756
H   44.137691    1.946369   70.835228
H   50.687298   34.213085   97.802040
H   18.091028   58.168213   32.836452
H   21.957262   87.653854   60.199467
H   15.679240   95.054939   30.374483
H   49.010391   42.033825   61.310287
H    7.771420   96.006432   84.071281
H   87.388962   69.732407   13.680642
H   34.696762   69.762833   59.825806
H   65.184700   72.522766    2.308174
H   19.152334   46.746407    6.299437
H   61.944839    4.310884   68.721786
H   61.306416   52.676613   13.305606
H   28.294790   19.064079    9.987337
H   18.893961   92.250343   55.080345
H   36.828232   76.469810   96.212044
H   20.641768   48.408806   63.987885
H   84.035889   84.560051   16.033854
H   67.596832   89.555229    8.029541
H   36.091988   44.837128   21.370829
H   25.143948   50.403854   90.449852
H   88.988106   99.494804    5.935225
H   16.871597   41.329109   65.492332
H   52.244781   92.067650   12.321226
H   21.218588   49.528992   93.470741
H   22.449852   53.704769   17.533020
H   82.075874   78.295357   21.077032
