100
TIME:    2.028, STEP:  2028
H   80.177155   36.043320   97.289322
H   44.857765   14.699316    5.925802
H   14.614325   19.806355   99.528999
H   81.817001   49.097008   29.001190
H   77.006439   35.310658   10.717703
H   96.569099   99.011009   79.585716
H   46.682339   98.276985   49.045097
H   60.489494   64.048584   21.989449
H    3.775882   91.309372   72.432610
H   19.420191   45.502434   87.103844
H   11.615402   47.843403   44.402065
H   78.438019   25.343615   48.573494
H   14.261699   39.010674   23.562496
H   54.666771   98.824989   11.571140
H    5.167534   88.878326   53.289360
H   19.983463   34.352913   64.699966
H   61.019287   16.111885   57.997849
H   44.482010   96.078835   29.239243
H   76.849785   63.432678   70.204102
H   37.880127   62.744457   54.408302
H   43.932236   54.324268    2.201332
H   56.805729   46.776665   46.574890
H   58.667305   78.128624   74.326523
H   30.618370   61.004398   56.458206
H   57.050774   25.335335   51.524918
H   37.360065   67.178574   99.088173
H   87.202217   58.177349   40.209766
H   61.424202   51.099895   33.806507
H   55.267776   33.087654   61.307518
H   78.756142   40.647141   44.608456
H   95.877510    3.906333   48.935169
H   93.806458   96.482506   11.521919
H   13.206833   20.104038   80.495209
H   63.789085   87.868729   86.315140
H   30.362457    5.618855   48.218643
H   48.881542   43.794353   13.668214
H   74.310028   30.267252   68.263794
H   80.169609   21.835934   65.550484
H   59.550743   37.216179   47.753372
H   72.177803   22.328424   97.592667
H   96.650658   25.769239   90.123337
H   49.356110    2.874244   98.079056
H   28.709188   75.661255   47.957466
H   49.857430   46.760429   79.020676
H   80.741173   51.874798   29.651915
H   51.923550    1.597772   91.405128
H   57.493885   35.140266   44.952339
H   56.347721   16.263521   94.059105
H   24.311003   64.489281   63.578697
H   68.421837   61.616856   41.823185
H   43.389896   73.853111   74.799759
H    3.690474   75.556396   40.927967
H   50.948303   33.767761   85.086906
H   29.729305   74.119850   21.306253
H   79.311432   36.290157   17.614820
H   96.103714   10.400618   23.588898
H   24.818445   31.030128   48.867165
H   75.047943   85.367813   61.319168
H   50.220154   24.456850   55.793495
H   25.191929   83.666748    5.929105
H   87.628189   84.260323   56.275959
H   26.934017    9.067595    3.592632
H   11.790321   68.858864   94.429367
H   82.298889   52.826309   72.082588
H   12.816123   98.870544   84.425110
H   76.762062   41.455086   66.096535
H   24.858591   18.476568   64.974197
H   40.278038   33.521301   63.152729
H   57.979050    4.067169   33.039940
H   71.469055   50.146408   97.462738
H   57.634468   57.415070   37.824772
H    6.749721   84.219604    5.101889
H   74.762115   17.993801    9.746967
H   85.559380   21.043333   82.678490
H   59.948051   31.529303   55.134258
H   73.603539   37.548355   59.469776
H   51.084702   50.773964   26.915319
H   27.259457   18.114298   26.438580
H   58.761780   47.561375   40.304222
H    0.068306   98.504303   46.207130
H   50.568478   50.262249    1.197975
H   93.485825   57.471939   17.197397
H   46.114437   41.106323   23.056736
H   89.677986   85.700172   78.194489
H   53.582916   22.031197   51.160553
H    4.613952   83.547035   82.613655
H    2.600261   55.900803   20.246305
H   88.601959   42.927887   74.658821
H   97.768257   81.256615   11.607965
H   87.036026   25.837631   96.714790
H    7.016761   82.937332   76.289383
H   28.339060   48.029926   72.163078
H   15.404434   88.398300   75.806656
H   43.242054   36.245708   63.554840
H   21.528851   68.074585   62.687859
H   61.426071   15.648041   62.700104
H    1.629609   84.063362   20.557373
H   14.311263   33.504883   23.587410
H   12.103970   45.592205   75.174149
H   65.186996   26.611881    2.360079
