100
TIME:    6.848, STEP:  6848
H   54.219803   94.026588   92.876480
H   11.351372   75.947762    9.893180
H   97.480286   66.576515   42.957401
H   82.626022   50.513214   64.802246
H   33.834137   21.654737   80.028229
H   21.824230   93.789146   56.927265
H   94.066910   23.747066   25.975672
H   81.646996   81.040710   79.433510
H   85.290962   27.886215   69.030830
H   87.716286   14.711958   75.844643
H   63.270752   41.786579   80.115105
H   94.470535   66.945496    5.481331
H    7.081650   47.476788   44.569756
H   16.009296   83.968422   78.376259
H   63.781807   58.335716   21.582699
H   26.180965   12.777983   64.597168
H   73.431648   34.912624   96.788795
H   47.508747   61.615356   62.136681
H   51.923580   65.637405   24.141453
H    8.022072   60.384640   82.576317
H   57.906693   74.477753   71.374413
H   18.904770   53.174805   36.107803
H   94.311531   38.927879   36.422012
H   82.780296   18.750216   98.480972
H   84.660957   43.079819   87.113930
H   15.318356   24.221260   46.455940
H   71.569008   57.815468   35.843105
H   54.726715   76.081200   93.130478
H   60.074089   70.396156   33.462677
H   63.575794   21.352104   27.784588
H   85.567513   36.129143   67.587044
H   98.144287   63.305279   65.310402
H   52.721684   67.450096   14.718877
H   67.446083   46.144333   83.256378
H   10.528145   41.180336   41.689720
H   67.922600   21.793571   97.896492
H   36.611450   53.747192   48.060886
H   80.951485   33.631268    5.686728
H   56.017719   32.208855   80.690414
H   18.188728   71.097168   76.821518
H   67.239334   91.155403    3.681378
H   23.101959   68.457581   29.563030
H   70.221161    4.567062   96.112877
H   42.075207   27.586081   50.296349
H   62.641441   61.702702   42.112370
H   89.729881   93.531967   10.981985
H   95.234665   97.254898   91.198448
H   56.605587   65.902161   92.293381
H   65.200935   65.297523   71.306168
H   69.514404   34.964375    4.719267
H   43.031376    8.513079   25.614616
H   37.939678   28.295692   24.507851
H   50.921497   61.715759    5.147009
H   18.109322   95.469650   33.998795
H   95.546555   58.731743   58.595707
H    2.124935    5.330292   59.504715
H   30.385393   91.950081    7.289231
H   16.139639   30.178736   37.167587
H   30.364235   28.117046   85.763008
H    7.122332   54.149075   68.837181
H   91.677361   60.106247   80.471695
H   55.869026   64.201859   85.503662
H   38.971195   39.988197   63.882538
H   13.279152   79.067047   41.217442
H    4.130712   13.905487   33.293842
H   80.664062    1.839036   51.091049
H   38.141037   85.115082   97.682877
H    7.327557    9.181396   93.576599
H   98.204262   57.732727   30.738018
H   69.121788   92.576103   87.313202
H    4.576809   29.463760   80.003670
H    9.329553   24.247189   58.006386
H   60.488876   79.577606   86.165588
H   79.456596   16.009911   96.269226
H   92.340935   38.404720   20.523045
H   87.548012   46.465832   35.146095
H   88.727142   33.088970   12.191774
H   53.711819    2.945821   92.628456
H   89.900047   33.403988   94.083092
H   63.692612   35.977150   30.959770
H   44.877739    0.127394   89.278351
H   55.164452   88.881058   14.101093
H   51.027390   21.640783   82.112381
H   21.281490   98.157005   37.957920
H   18.888563   20.538315   83.915642
H   93.682297   60.594810   17.329300
H   24.517229    5.447167   50.082466
H   66.163689   57.090893   24.574753
H   97.797470   12.886847   72.182991
H   60.884449   27.530514   69.014435
H    4.271050   43.203720   78.079025
H   84.981552   10.514609   64.003807
H   24.423344   32.993450   48.570930
H    9.099887   28.633020   88.549164
H   38.195351   36.327705   73.446198
H   59.538315   25.311346   13.741020
H   19.040380   60.672363   43.354797
H   25.059099   25.298752   41.407784
H   82.490227   66.373528   71.446159
H   64.565239    2.904788   38.051067
