100
TIME:    5.063, STEP:  5063
H   74.932533   57.718422   94.510696
H   60.647377   79.220810   97.343567
H   66.784256   38.156021   63.916225
H   82.326416   24.055164   62.644348
H   49.822220   78.579285   28.425339
H   49.510578   95.722969   80.152367
H   87.618370    3.214698   86.386200
H   21.944481   26.615925   43.326427
H   29.169731   99.506470   81.389503
H   36.480934   89.080544    5.949747
H   29.307098   69.963379   52.055210
H   62.602600   77.472755   32.538628
H   20.986496   55.420891   21.936768
H    4.391734   89.470284   42.537102
H   42.085136   17.779936    7.397738
H   97.950851   68.900528   12.767683
H   16.970924   16.849514   34.293213
H    9.336774   48.468845   24.015966
H   24.126354   90.751602   30.100595
H   56.108887   98.297157   61.045204
H   63.831123   52.180336   19.826122
H   47.775085   50.805191   88.117081
H   18.145683   53.445168   87.491272
H   48.632679   97.396454   31.050312
H   48.501740   84.638367   73.931252
H   23.466311   76.983292   14.316721
H   25.490355   32.013554    0.422603
H    5.341073   92.763443   34.128372
H   21.261452    8.447186   17.841423
H   95.131805   65.530418   85.882851
H   15.315595   76.064056    8.810493
H   85.438210   12.628284   30.556755
H   26.987831   98.049644   53.911980
H   92.024826    9.728982   58.454811
H   54.919098   76.196060   33.029442
H   12.755746   81.984352    3.509146
H   65.405670   19.117783    7.409919
H   54.727474   66.301018   79.723015
H   31.361622   71.103203   53.669815
H   86.315285   38.202156   36.380520
H   89.231903   29.907110   61.627789
H   76.586876   39.088005   40.662090
H   54.851421   93.861252   67.178596
H   56.052860   97.625061   75.768967
H   17.478315   32.131500   89.364769
H   12.767607   59.485798    3.729474
H   81.289352    0.180330   74.066414
H   56.509808   47.517227   81.847694
H   13.028267   13.132648   42.509315
H   32.064014    7.793447   29.551346
H   43.158344   80.843323    6.799037
H   51.184441   93.930618   41.685913
H   13.893073   51.365723    8.817369
H   59.441376   24.595581   55.232323
H   37.671783    2.301557   43.411114
H   99.901169    7.207938   20.270340
H   17.224724   43.456123   37.520958
H   49.053848   98.749443   83.143539
H   89.585060   52.693436   22.793381
H   24.913349   16.946651   19.606819
H   79.078400   43.118687   19.645035
H   19.220240   80.816391   66.271439
H   17.786997   61.793137   86.285339
H   90.706642   69.343460   89.678360
H   33.281036   56.471508   67.064186
H   90.318016   90.576439   45.547401
H   81.354309   23.404190   11.503582
H   30.629860    7.095191    8.243278
H    9.240301   85.991447   42.690613
H   32.962822    2.795682   91.071899
H   61.259590   50.913712    1.412264
H   56.498833   83.493729   27.310555
H   76.874100   67.868050   31.933075
H   18.753086   28.982052    2.327816
H    6.279661   35.858067   85.207489
H   45.351974   32.063148   55.252903
H   26.642191   87.719185   80.590202
H   69.849274   19.662834   94.049583
H    4.303453   38.647099   74.172890
H   51.226135   33.211330   84.739319
H    9.946957   81.660721   82.592827
H   21.208183   77.292801   63.412621
H   38.121124   91.790588   12.117751
H   98.476639   45.411179    0.990897
H    5.802654   32.191299   56.951317
H   34.766796   95.026237   93.373169
H    5.301061   35.231583   64.966904
H   37.451874   99.939041   43.090454
H   60.755234   12.272778   86.781990
H   18.701147    0.968247    5.208480
H   31.221519   46.818577   40.383099
H   52.909626   76.265411   29.998487
H   10.001508   79.437294   10.534138
H   36.586143   20.340639   68.189476
H   69.054802   96.216270   32.427372
H   12.104674   95.799896    5.938356
H   60.725151   58.235836   46.011353
H   25.449797   59.346100   75.015282
H   67.523468   58.674900   20.957420
H   53.692318   48.707836   10.005326
