100
TIME:    4.951, STEP:  4951
H   82.506752   67.989418   94.613235
H   63.740639   73.152206   90.282043
H   64.858231   30.098259   65.230492
H   82.307617   28.669849   68.783211
H   50.825394   69.601990   31.461777
H   51.247761   95.844307   69.061058
H   93.488731   95.652130   77.627655
H   30.747459   16.926838   53.610241
H   31.922905   10.274971   88.439064
H   39.541725   87.472389    1.563718
H   39.725067   65.456787   62.843174
H   66.877052   71.858742   40.511040
H   28.133469   62.193596   33.065674
H    9.937175   89.815498   34.013542
H   40.723076   27.783903   12.781668
H    2.454234   78.696426   22.064911
H   25.977272    9.441731   24.097410
H    6.941799   53.917942   27.898352
H   22.381908   86.053604   24.200327
H   59.126099    0.675937   53.419716
H   70.477364   63.330605   22.865978
H   37.037537   50.656509   97.654922
H   19.641045   54.356056   90.695618
H   59.039539   96.056610   39.368744
H   52.507599   93.519958   73.104103
H   23.976870   80.293594   24.848764
H   35.148392   36.669682   98.200783
H   14.791116   87.535660   30.425859
H   18.826149   98.285759   23.135429
H   90.837128   68.302391   76.979042
H   10.907483   66.020355   17.671577
H   78.366432   15.722613   40.925163
H   19.098732    6.243974   43.822136
H   87.292648   19.993011   63.173317
H   57.703033   84.662369   26.209740
H    3.019996   73.212135    3.861428
H   54.663734   23.219772   98.584885
H   59.356258   68.350090   71.818962
H   36.089527   73.543633   64.523575
H   96.864845   48.687630   27.568357
H   96.886444   26.064459   58.989117
H   86.652794   34.061028   35.400982
H   53.886700   93.189621   59.088783
H   63.204105   95.745178   64.817795
H   27.193464   36.550079   79.780785
H   14.212767   57.349567    3.274190
H   80.414352   94.089500   72.991463
H   56.503826   46.363663   74.917763
H    9.754707   22.408161   46.977455
H   29.715015    6.088736   37.384476
H   43.166889   91.656067    5.618342
H   45.741325    4.323172   49.038818
H   11.569922   50.716309   15.322191
H   62.034760   26.423340   50.289940
H   46.589264   92.485359   42.458355
H   99.761032    7.325751   24.083084
H   10.124572   46.687813   26.868858
H   57.393692    9.326618   86.028305
H   80.751320   47.961258   31.391708
H   32.303852    8.337644   22.792366
H   72.013458   48.326817   28.377090
H   23.194910   81.858871   71.338577
H   10.183297   69.435715   93.965515
H   83.016212   68.733353   92.718643
H   28.835417   65.417053   56.634251
H   97.198387   96.144310   38.925087
H   90.340149   19.532059    6.095965
H   38.366432    0.689569    2.889030
H    3.658038   94.039055   49.715393
H   30.693899   97.162598   91.307739
H   64.815987   58.534073    2.755888
H   65.733490   87.210770   19.110420
H   84.176590   73.408577   34.805023
H   21.218296   36.070248    8.982265
H    0.879804   35.698277   76.717255
H   42.703903   24.884985   62.788670
H   16.473307   97.426216   78.609489
H   64.587311   26.986259   87.864769
H   98.932671   38.976078   72.923622
H   56.718811   39.311550   94.388245
H    7.755385   80.502029   75.898735
H   12.804334   76.561356   72.777855
H   31.036531   89.917542    1.451337
H   90.770828   35.827194   11.220176
H   11.256280   39.197281   67.808495
H   37.344799   90.912712   85.595581
H   97.820808   43.374893   59.626328
H   35.648895    8.905830   44.255127
H   58.431015   18.508562   87.698006
H   28.603430    5.576523    1.204870
H   26.638023   40.771336   38.017864
H   44.622761   67.841827   27.864820
H    2.822245   76.076866    1.872986
H   25.760582   13.546998   60.637852
H   70.991081    6.248478   29.853996
H    2.853882    0.222735   11.723482
H   69.615288   51.808346   52.452515
H   25.038786   58.392487   76.808006
H   72.858917   58.192112   30.338890
H   46.735897   51.581493   20.794691
