100
TIME:    0.437, STEP:   437
H   87.770180   81.946236   98.745926
H   89.114250   28.438160    5.566262
H   87.272705    5.343719   18.208771
H   81.549957   14.645540   16.209459
H   91.256882    7.784997   53.856148
H   21.239887    0.738029   22.022871
H   30.067764   90.845558   24.626741
H   85.538956   26.408176   68.071037
H   42.885704   44.277679   72.580437
H   62.898064   22.660511   24.802111
H   59.606354   83.826263   97.655708
H   39.161915   45.595146   61.822823
H   15.465165   35.268402   81.694420
H   33.444157    3.729896   90.495537
H   85.817619   30.988878   29.765745
H   83.952957   73.514717   96.765121
H   88.932411   10.896500   13.142875
H   10.482938   73.449295   84.396286
H   52.069084   96.684586   86.385696
H   80.820198   96.369537   46.001045
H   38.344345   12.712189   45.381691
H    4.250182   44.676727   82.046089
H   79.909447   91.068123   19.846981
H   78.439484   41.922886   74.620087
H   13.954145   51.517132   39.785538
H   44.655224   14.588424   48.213089
H   24.395399   24.311066    8.637877
H   95.668602   76.836868   81.219589
H   20.673431   88.740257   36.514404
H   17.750132   80.024002   18.128803
H   33.292088   61.230553   74.831383
H   93.349915   40.437332   58.808800
H    1.138823   36.508781   37.165367
H   96.566093   33.674164   53.340889
H   69.909508   25.886459   51.337814
H   10.550389   18.814314   19.140676
H   21.713333   88.531593   42.899120
H   45.927528   50.955875   53.278339
H   31.073944   71.179329    0.241687
H   22.033260   71.273430   72.417168
H    5.378399   71.173943   52.636379
H   92.346092   31.470415   23.330999
H   15.005193   66.120499   33.038376
H   51.453766   20.095148   23.459446
H   18.749310   14.649999   93.502380
H   72.370247   71.419243   85.031990
H   40.694386   49.315395   31.357367
H   56.262753   99.882599   95.617050
H   77.802910   96.257553   27.041468
H   35.055073   37.400814   53.099594
H   43.511280   27.454325   58.024540
H   26.369802   23.188274   45.374344
H   17.944086   24.542603   77.490486
H   66.568405    0.071710   51.099751
H    5.969387   96.814224    4.114285
H   94.113022   12.072678   77.750290
H   23.955948   76.937431   97.549675
H   93.518982   35.617622    2.298473
H   24.742348   57.233047   77.935333
H   30.181190   61.378235   51.180260
H   87.266708   58.246902   80.323425
H   83.401154   23.877823   75.582901
H    3.873755   77.353264    3.578051
H   73.048164   44.171654   15.275190
H   49.668213   25.941372   36.258003
H   74.499794   20.548542   72.024712
H   52.507500   63.468319   88.160202
H   50.179253   42.530075   87.093727
H   78.682854   18.386284   32.824619
H   39.238876   70.124657    0.811819
H    8.155107   65.671150   56.906284
H   37.934444   37.022423   88.616737
H   78.498383   96.691872   50.544018
H   20.572243   21.725142   77.236397
H   83.241013   29.265497   34.525928
H   35.989841   35.580017   66.523849
H    6.631355   88.668327   98.766418
H   52.511383   22.146027   38.574368
H   82.499367   52.222401   22.561161
H   78.094193   85.154716   83.273285
H   19.433567   33.802624    6.107396
H   74.112236   47.081497   50.238060
H   45.445972   14.551400   71.521973
H   80.231720   49.556248   23.515022
H   31.051897   21.548820    5.390250
H   41.235264   25.105579   72.129829
H   96.340950   71.579460   44.380993
H   62.990005   70.306755   91.196831
H   64.751900   69.840736   24.625340
H   27.699467   91.304901   39.834408
H   41.906406   97.028885   42.690380
H   10.620392   28.372324   41.850311
H   13.322773   40.724724   52.722435
H   89.465279   39.739998   56.282314
H   49.036701   10.585209   26.128075
H   30.016022   78.474663   44.877403
H   27.915106   92.759071   12.056684
H    8.469674   19.958466   49.043571
H   87.894493   38.734028    8.446987
H   66.380661   67.479927   55.596786
