200
TIME:    0.901, STEP:   901
H   29.782160   60.281277   26.642267
H   33.855408   42.528004   16.731638
H    4.283677   98.070015   77.905998
H   40.123413   84.699684   27.214710
H    8.192137    0.482204   44.154911
H   68.115112   34.874416   45.984798
H   12.935935   54.835129   62.445530
H   17.701267   17.428417    1.609950
H   14.271759   77.596672   31.594297
H   87.592743   65.638748   69.999992
H   35.232864    8.714244   13.849892
H   33.511124   59.665882   44.237812
H   27.397602    8.945974   34.200523
H   73.161758   55.995731   74.117577
H   87.709061   77.033005   41.352215
H   10.033689   98.731613   40.063839
H   15.306933   38.675278   83.344482
H   20.866644   14.944054   31.752483
H   87.018074    5.771719   52.214359
H   92.159195   70.627220   11.846985
H   66.017761    9.754499   95.557396
H   75.313469   74.079948   45.102348
H   75.211319   57.735451   33.275879
H   22.608942   94.085602   89.513397
H   31.976830   39.288380   21.824100
H   18.113924   91.671440   85.125275
H   11.696535   72.059929   75.658630
H    9.680552   97.397095    2.470538
H   38.908638   36.438301   34.467838
H   63.179485   38.472145   75.760803
H   12.498504   79.064888   17.002958
H   19.905991   78.998520    9.877482
H   11.152023   23.208454   81.253044
H   74.549889   64.299072   49.843880
H   16.267155   62.488102   29.190483
H   11.464013   34.851746   87.050133
H    5.236144   60.162270   90.917274
H    0.219414   61.853706   85.448204
H   28.606514   22.731649   59.124500
H   83.743660   36.970295   37.876068
H   80.700989   74.345512   23.464306
H   46.240036   29.245869   20.230646
H   64.800308   72.597366   74.872711
H   35.808701   95.337822   42.388245
H   51.362034   96.462227   68.217445
H   31.757889   96.636185   49.876717
H   92.430435   93.827652   10.670985
H   74.023514   65.540520   23.884903
H   12.643584    3.668441   61.642899
H   38.463066   20.784456   77.748497
H   62.484070   62.129730    1.672984
H   95.870827   47.075054   77.752983
H   70.005943   75.519615   16.564806
H   12.568683   96.132721   91.491684
H   49.220169   61.684502   69.395950
H   96.832573   56.064884    0.292932
H    3.544114   19.246803   42.564091
H   74.630295   73.945503   93.372322
H   14.233402   87.246414   23.113239
H   27.815346   92.277504   54.774971
H   48.278751    2.480136   22.923628
H    1.816559   17.990744   54.133774
H   89.657692   38.898918   62.584480
H   40.142082   66.095383   18.425838
H   81.974037   85.933151   44.959583
H   12.810106   42.240990   44.744675
H   61.484474    9.218964   99.491646
H   93.639839   92.952751    0.358247
H   40.033920   14.785714   53.613419
H   41.431999   53.150787   50.947292
H   58.175190   88.024681   90.962204
H   13.563238    6.447653   40.137848
H   98.472794   37.090603   77.361900
H   29.400124   94.435562   79.816383
H   87.193710   11.571630   36.532524
H   70.021317   95.740768   58.558117
H   92.633743   54.557659   62.795471
H    2.072887   18.006390   25.364677
H   16.559864   59.137444   20.285507
H   58.314667   86.980492   62.914154
H   71.422470   18.930477   91.320145
H   55.701729   56.702278   67.422874
H    8.420834   20.916916   70.939697
H    3.118968   83.474022   15.394810
H   15.369877    6.313692   39.049862
H   43.289097   62.646988   14.023005
H   65.480370    4.161487    3.286742
H   69.834587   93.943100   36.373447
H   85.918015   73.666023   79.551208
H   20.133381   15.675954   47.593456
H   13.534678   40.598984   77.814400
H   79.451141   94.334946   12.790745
H   78.661293    9.407240   76.904198
H   30.387390   70.686020   87.254532
H   41.873322   47.984909   95.469681
H   41.898506   42.487896   97.982895
H   88.272102   91.415565   26.796844
H   96.648758   40.074398   56.494411
H   22.040108   63.156532   55.223736
H   78.697495    8.667735   27.411783
H   39.357754   98.702332    0.065379
H   15.150873   86.656898   62.218491
H   36.881310   13.012926   39.739357
H   53.637306   69.159897   16.412146
H   24.462513   18.786114   46.517891
H   13.592129   94.410713   12.943502
H   89.045807   36.939220   51.540535
H   60.855942   59.653423   93.182289
H   89.594894   31.745960   31.095310
H   25.600409   18.844252    8.772367
H   55.891247   90.322769    1.260913
H   12.534554   79.967224   98.040405
H   45.613583   87.945107   79.557693
H   60.985069    5.147069   57.909443
H   41.792046    9.493185    3.595818
H   87.063019   86.461601    8.754075
H    5.397806   17.750370   91.885849
H   37.417500   59.531586   20.765770
H   43.964680   82.530357   50.871925
H   88.226471   59.867428   74.001678
H   47.453438   26.151913   65.860016
H   89.769234   11.821423   67.631096
H   48.172371   93.944351   43.638458
H   94.338905   43.533024   88.918724
H   57.137611   92.586655   70.951599
H   71.938240   80.437798   12.769033
H   78.956444   52.276260   45.526947
H   60.970306   92.754204   40.585209
H    0.602147   28.557014   69.826736
H   99.783562   21.016363   77.762695
H   75.291626   61.584320   28.671879
H   56.328522   92.607315   24.914989
H   90.279335   14.753555    2.292866
H   68.509010   29.950241   57.842091
H   37.079891   89.418167   26.042717
H   44.752861    0.778518   73.943512
H   69.987053   88.248894   88.244431
H   96.856453   43.582352   72.754257
H   63.590652   53.577507   71.393753
H   43.806000   77.388893   77.090775
H   83.341881   43.630306   36.262100
H   26.808870   61.094692   61.655869
H   33.756695   68.926277   77.089012
H   27.424644    2.600549   89.077888
H   71.372047   47.845024   70.682968
H   70.159927   73.363342   98.188332
H   60.364647   93.883095   42.549011
H   24.603439   48.813751   65.032616
H   82.856049   37.194370   91.373390
H   30.532824   95.891373   65.260872
H   52.922626   72.535736   46.354118
H   61.612286   88.819214   27.438084
H    6.882850    7.122700   80.261269
H   27.382948   16.315176   59.617470
H   39.823685   71.336548   72.710922
H   83.124527   45.167889   74.398262
H   66.230301   80.707344   88.582565
H   55.443752   26.054405   25.210016
H   82.128845   99.243530   78.090942
H   56.268944   29.973598    3.607228
H   60.448849   57.555252   65.840927
H   12.568512   19.630823   29.817616
H   93.672127    5.750427   36.957207
H   35.537651   39.597847   42.919361
H   52.625183   44.517239   16.319305
H   23.302118   43.407341   58.688492
H   63.517715   86.875740   59.228989
H   24.209641   61.006672   75.345932
H    3.055233   26.020618   35.296116
H   56.637836    5.471527   82.959839
H   66.737244   13.494641   35.920601
H   23.327621   40.895267   59.487934
H   50.444416   49.050568   71.825333
H   63.086201   58.728596   89.575127
H   40.715729   90.064117   68.151230
H   21.311363   51.236317   23.933933
H   28.627304   73.571007   14.557590
H    7.588366    9.831238   73.332321
H   58.696541    6.013042   61.404724
H   54.857975   61.545601   95.709564
H   69.349846    8.877078   26.351130
H   32.560123   30.912930   93.747063
H   35.199402   89.468971   19.162865
H   65.875633   26.443420    1.507740
H   94.070900   59.664757   75.673599
H   13.098086   41.801361   87.262428
H   54.368378   93.202637   13.911346
H   58.665092   95.223457   48.656048
H   87.475471   64.120949   74.097870
H   61.633633   54.677631   74.054276
H   79.395973    9.155247   74.581184
H   42.234180    2.892596   16.205050
H   18.782825   33.249554   72.949402
H   23.555950   89.911217   46.634445
H   62.210857   24.731230   19.654085
H   76.941910   12.005410   20.510351
H   13.855020    3.583544   25.777143
H    9.699122   84.269089   28.325153
H    3.098741   13.461426   48.454826
H    1.113533   12.598170   88.565437
