100
TIME:    4.430, STEP:  4430
H   17.739483   15.767645   95.090225
H   78.129829   44.919678   57.432556
H   55.902367   92.616386   71.343910
H   82.220169   50.134697   97.338997
H   55.491943   27.841539   45.588547
H   59.328762   96.408745   17.463644
H   20.794437   60.473736   36.884777
H   71.697029   71.852509    1.445322
H   44.730080   60.366959   21.233881
H   53.779869   79.991600   81.164185
H   88.187225   44.493092   13.029816
H   86.759575   45.743553   77.596992
H   61.379654   93.698769   84.834961
H   35.732903   91.421364   94.364365
H   34.387062   74.322021   37.826206
H   23.403908   24.265190   65.312439
H   67.872871   74.980057   76.668724
H   95.802010   79.268364   45.959911
H   14.267120   64.199524   96.752960
H   73.164116   11.740099   17.947580
H    1.394245   15.196453   37.006035
H   87.088760   49.964874   42.022842
H   26.597145   58.593315    5.601924
H    7.446535   89.812561   78.063095
H   71.141998   34.838577   69.256386
H   26.351881   95.692413   73.840675
H   80.075432   58.328991   87.866005
H   58.750446   63.217133   13.202716
H    7.496896   51.016079   47.763283
H   70.859207   81.197014   35.560432
H   90.403328   19.302471   58.891441
H   45.470043   30.115799   89.156776
H   82.400856   44.362083   96.886337
H   65.279572   67.739685   85.122795
H   70.653305   24.046227   94.485245
H   57.729877   32.405659    5.500562
H    4.694031   42.300278   57.531971
H   80.891487   77.881935   35.054134
H   58.082729   84.895988   15.012411
H   45.936699   97.461082   86.577698
H   32.492050    8.189267   46.714581
H   33.477982   10.678100   10.926725
H   49.399021   90.065338   21.457712
H   96.474045   87.011749   13.877027
H   72.385216   57.104362   35.198139
H   20.934612   47.412281    1.156256
H   76.344040   65.756310   67.991020
H   56.476002   40.997528   42.681206
H   94.525131   65.556000   67.761566
H   18.787975   98.159706   73.823586
H   43.206638   41.955879    0.126002
H   20.422029   52.668957   83.240723
H    0.762865   47.695374   45.582119
H   74.101952   34.925682   27.299442
H   88.071472   46.823032   38.026325
H   99.109146    7.873793   41.819153
H   77.093948   61.720940   77.317268
H   96.188858   58.528893   99.447617
H   39.661011   25.947636   71.390511
H   66.683197   68.293610   37.610847
H   39.148865   72.555321   68.997231
H   41.685265   86.708267   94.909821
H   74.813911    4.987498   29.692070
H   47.240120   65.895264    6.863316
H    8.155923    7.026874    8.115466
H   29.203072   22.044258    8.119718
H   32.141800    1.520357   80.942307
H   74.355309   70.893570   77.982216
H   77.693436   31.474777   82.390930
H   20.138514   70.959961   92.404816
H   81.359581   93.982361    9.006073
H    8.693830    4.501790   80.966118
H   18.147184   99.181923   48.164711
H   32.688107   69.041557   39.938011
H   75.758430   34.954967   37.222500
H   30.385645   91.494102   97.847275
H   69.171066   42.583607   69.395638
H   40.109783   61.054958   59.093658
H   73.946358   40.506420   67.112297
H   82.269562   67.687950   39.272697
H   97.561081   75.112045   44.759258
H   73.714027   73.158829   16.343645
H   98.080864   81.204529   51.835392
H   54.926056   91.243477   58.803978
H   36.625626   71.786659   18.313461
H   49.337116   71.777473   49.415909
H   63.024406   81.255829   34.783112
H   27.262949   50.617653   49.672935
H   47.619247   47.516563   91.959114
H   74.667648   27.013237   82.578583
H    5.316518   12.639496   27.015299
H    6.072091   28.659317   17.938364
H   69.425117   60.440460   61.583233
H   75.404587   81.945480   25.511164
H   79.998238   52.917931   17.883541
H   59.821426   20.795525   38.633812
H   10.970037   21.909039   82.415421
H   23.126852   53.956482   85.147377
H   97.678284   55.946285   73.978569
H   14.376066   64.949409   70.984940
