100
TIME:    3.556, STEP:  3556
H   76.844635   95.918091   95.890396
H    2.352994   97.544754    2.311419
H   40.879158   29.736408   81.599434
H   82.073471   86.142387   45.247082
H   63.320282   57.786587   69.286942
H   72.880623   97.355614   30.908346
H   66.598747    1.454782   68.536766
H   40.391708   96.241714   81.694023
H   66.214668   44.398544   76.250160
H   77.664970   67.442253   46.940216
H   69.484573    9.325897   97.217842
H   20.117355    1.934734   39.808647
H   17.065578   46.564514   71.690880
H   79.008812   94.115273   27.853207
H   23.755539   52.390915   79.839333
H   58.545563    0.708196   37.862648
H   38.154854   17.173115   97.105057
H   77.130577   21.772560   76.263367
H    0.654645   27.531733   50.705051
H   96.715813   30.300730   58.441643
H   53.258636    2.205606   60.724434
H    3.297531   48.804626   16.451996
H   38.266304   65.701500   30.609905
H   88.650551   79.330322   42.974377
H    2.401861    4.149925   62.801674
H   30.352407   21.653059   55.866333
H   55.441700   94.657791   70.528969
H   32.497196   22.421753   84.314262
H   88.492264   71.720169   89.078773
H   37.345383    2.828498   66.080383
H   56.007763   40.928852   28.039543
H   90.285316   54.260956   70.067329
H   20.836973    8.308739   18.149519
H   28.351357   47.836525   21.942150
H   92.377945   90.113670   41.263390
H   81.738518   63.828869    8.412183
H   20.866013   74.307114   88.664299
H   17.016785   93.872017   73.377754
H   94.971680    3.939363   99.709831
H   28.258312   79.282791   17.812551
H   92.224808   78.197830   26.123518
H   12.028160   71.454865   69.865189
H   41.870747   84.824219   58.326275
H   52.284149   72.368622   28.421095
H   48.198574   91.590393   60.407406
H   32.210354   30.742054   97.607033
H   69.515915   18.225193   59.599068
H   56.429325   31.995607   88.603081
H   68.973007   37.941360    2.622693
H    0.457396   84.863533   34.952908
H   43.273319   26.334919   90.910721
H   77.947891   33.768753   40.617603
H   82.638771   42.627625   96.342049
H   94.346275   49.188728   88.733551
H   57.659378   70.224060   30.592035
H   98.015579    8.793875   71.572174
H   21.687204   86.939659   94.192543
H   61.269035   41.067566   21.961235
H   70.730110   89.017960   38.487080
H   24.359825    1.113020   62.469490
H   84.015633   13.202378   37.141865
H   72.705223   94.843338   34.456871
H   15.476716   64.628105   89.624870
H   87.223747   61.138260   30.595051
H   73.467552   76.832710   26.724199
H   82.894539   65.493538   56.442276
H    2.263543   71.300781   38.746624
H   34.728645   20.908823   36.199963
H   34.132896   94.274857   37.206707
H    2.431435   26.998671   94.245209
H    9.112722   53.449745   19.491646
H   80.758347   33.508545   16.974998
H   75.133499   42.411282   70.574211
H   51.932217   24.348293   91.869102
H   33.620907   33.708035   70.966835
H    9.721738   35.478745   56.654858
H   89.816689   18.335831   53.938999
H   99.047668   18.201998   10.823530
H   32.035828   43.073635   57.359009
H   25.132515   15.285881   14.568529
H   80.464096   66.070114   92.522995
H    8.134538   67.450943   89.426636
H   42.787060   66.613403   68.591339
H   94.797531   16.453476   38.630966
H   79.181381   26.454433    3.038177
H   69.452942   39.672234   88.722534
H    4.651937   44.802757   93.107025
H   13.196611   20.592194   58.761543
H   29.481579   96.180290   99.107307
H   51.940914   62.974251   51.334610
H   69.548767   65.443748    8.558022
H   41.402092   62.935982    1.283880
H   13.400847   34.214859   93.995384
H   90.928413   28.929943   66.580132
H   95.108131   31.204845   97.800896
H   87.632584   55.308479   83.776787
H   80.343964   71.752190   32.681084
H   19.919500   46.514893   99.137032
H   39.313683   52.178814   47.185165
H   60.086399   87.380867   55.179672
