100
TIME:    1.236, STEP:  1236
H   33.736244    8.673836   98.014420
H   66.888649   71.760277   55.966732
H    1.000959   62.826794    8.827202
H   81.684067   81.726402   72.415031
H   84.100311   71.828377   32.191368
H    8.849998   99.869041    1.150383
H   88.191658   44.798862   87.109581
H   22.739136   95.532211   94.708153
H   23.244759   67.457016   22.284906
H   41.062599   34.130486   56.092293
H   85.285324   15.975362   20.692034
H    8.664196   85.645119    4.949615
H   64.638947   86.927544    2.281027
H   93.882469    1.266452   51.301029
H   95.534462   59.620220   91.358688
H   51.827637    3.626211   30.441879
H   24.694309   63.735641   85.890450
H   27.557022   34.594116   56.696579
H   64.511040   30.205080   28.479876
H   59.216125   79.566269    0.485308
H   90.930649   33.169785   23.697456
H   80.863518   45.731316   14.011561
H   69.241646   84.569908   96.985825
H    4.203742   51.505619   15.277744
H   85.377922   88.149239   45.681839
H   40.991596   90.780502   73.321915
H   55.497841   91.097855   24.493277
H   28.251335   14.131923    7.627680
H   38.046707   61.231510   98.746727
H   48.386639   60.248947   81.647270
H   64.722481   32.882874   11.605835
H   43.798893   18.364128   84.841377
H   57.420872   78.050804    9.145597
H   30.325829   60.450691   19.680521
H   50.049110   65.488014   99.993591
H   80.020050   81.578201   16.391432
H   98.347862   59.271339    5.857306
H   12.905970   36.331844    9.663246
H   95.153793   54.123039   23.661934
H   46.775757   96.472664   35.279819
H   50.773529   98.593239   71.464157
H   20.536552   67.331947   60.869465
H   21.887228   70.911865   90.750954
H    0.432971   33.485100    1.583931
H   49.441216   83.124161   61.877937
H   62.141384   86.491585   88.190529
H   49.131092   92.415390   38.184761
H   56.305424    8.109194   45.054592
H    1.162076   30.083740   95.168869
H   51.812664   49.562107   97.218224
H   43.450321   50.315910   66.449051
H   65.200157   49.047840   92.920151
H   34.518799   29.175476   31.084335
H   48.068233   87.038673   86.358353
H   42.362381   66.860214   10.894434
H   95.112747   11.232969   50.550446
H   74.607941   53.882790   73.541298
H   34.023132   60.162804   81.718582
H   87.757820   90.992065   16.594582
H   77.454895   22.790709   28.454796
H   37.668957   21.092476   18.027969
H   55.043091   16.440842   39.430153
H   58.071037   22.867722   48.763771
H   27.912779   48.518021   93.581734
H   81.381767   62.127926   10.667100
H   25.415718   80.827888   19.267317
H   88.401657   91.094757   26.736961
H   94.986656   88.224838   25.290548
H   18.503525   60.975250   82.712898
H   55.423454   10.309765   99.130463
H   82.783272   11.303289   47.323551
H   72.052505   10.505001   47.116180
H   26.402611   57.167202   30.055744
H    2.986717   71.164185   29.749443
H   21.764809   30.402380   95.094658
H   54.880993   86.788841   12.762944
H   79.176170   19.418505   12.904621
H   90.049850   69.902901   82.699905
H   20.796877   49.881687   31.470299
H   38.909836   41.639145   14.438573
H   35.069515   42.068645   53.861233
H   34.061031   52.299576   83.423660
H   96.003014   27.886316   47.622715
H   35.195789   17.927713   50.535072
H   92.146027   71.572571   27.936012
H   22.843975   54.456554   27.614998
H   49.704369   13.485664   82.480286
H   75.852325    6.337519   82.894234
H   81.332710   25.353415   18.087502
H   57.059158   58.424728   68.399727
H   74.604744   40.172024   59.563793
H   69.738441   88.465385   57.071739
H   64.588066   64.663437   14.535080
H   66.692757   88.205345   10.156205
H   35.223423   39.016548   44.487907
H   96.010086   46.922356    3.607800
H   64.494461   38.611828   66.105591
H   11.403319   26.761475   36.260498
H   49.831779   42.178204   41.516888
H   16.001205   46.956112   78.641304
