100
TIME:    8.167, STEP:  8167
H   65.021233   73.068352   91.668900
H   74.924057   47.422657   93.060440
H   20.154169   61.470551   27.471653
H   82.847412   96.169121   92.501289
H   22.015722   27.378315   44.263718
H    1.367593   92.360176   87.551491
H   24.938095   12.812099   29.123203
H   77.976196   95.151726   58.327843
H   52.867424    1.068835   86.003754
H   51.690132   33.651020   27.491360
H   40.580582   94.859741   53.062195
H   44.130577   33.059933   11.593281
H   22.967369   67.647308   13.493349
H   50.699959   79.902901   78.752724
H   79.802376   40.516129   58.148666
H   73.145706   97.413170   55.108673
H   67.365456   22.154766   16.862585
H   75.711639   97.432930   16.417976
H   72.466660   20.968357   93.631943
H   72.481216   32.378834   72.379951
H   79.635368   43.167042   35.577641
H   45.358585   54.925797   23.782761
H   76.700981   28.202322   98.681915
H   60.226723   34.529266    0.520851
H   37.484810   38.476608   96.855080
H    9.099316   85.340317   22.331020
H   57.830231    2.983417   62.017414
H   43.433769   37.647648   36.729843
H   88.754128   90.066360   71.113701
H   14.152538   88.705948   32.641174
H   37.478252   54.405746   63.232033
H   81.426720   26.866535   43.203957
H   45.629742   70.945854   33.544815
H   23.177303   25.265785   27.687937
H   77.701561   41.313499   21.938589
H   82.581238   25.103830   93.750465
H   63.119633    5.441202   51.992947
H   26.435642    9.490398   98.764793
H    0.338761    3.473433   52.869209
H   93.953491   47.616478   80.597595
H   77.095123   36.411636   34.755459
H   11.943732   73.630051   96.900810
H   81.572418   12.479231   91.384651
H   57.852322   49.726036   79.260895
H   48.228600    9.665859   54.982895
H   72.702995   18.686481   16.340624
H    5.542729   68.987312    3.860403
H   56.686092   79.487442   73.905235
H    3.762138   56.058296   18.688515
H   97.208252   55.040401   12.495383
H   42.940807   81.172173   39.519608
H    2.044340    5.901484   37.924316
H   78.278008   69.363770   28.545557
H   87.563507   73.954590   92.204178
H   90.525856   74.322311   69.810928
H    3.767748    3.942832   14.602844
H   14.005013   53.891167   32.737206
H   17.924231    5.614612    3.190988
H   34.388409   83.853371   84.505783
H   20.081596   55.531872   31.321678
H   74.881119   98.769043   77.631966
H    9.055153   51.924789   25.823139
H   28.517799   49.981842   73.434753
H    3.852554   86.252151    5.403268
H   56.486809    8.559021   56.126221
H   99.637367   36.267479   29.081135
H   32.315277   30.717316   61.365032
H   16.215401   84.616447   56.632431
H   63.946190   62.957802   48.013527
H   95.892265   58.849979   84.521530
H   62.693203   39.718956   64.184364
H    0.735347   80.423241   54.683086
H   74.487335   14.339102   52.349735
H   50.418995   32.530712   17.898153
H   55.883530   40.340679   20.528936
H   18.728716   31.000519   46.393456
H    8.520486   18.925537   35.584389
H   15.679088   16.703442   65.474487
H   53.149208   29.529667    8.799999
H   99.008537   64.124290   17.326729
H   70.697716   13.773721   68.113358
H   54.140724   97.434753    3.753332
H   34.455154   43.699253    7.726249
H   12.026361   11.026861   17.488438
H   54.665405   38.025532   56.053932
H   63.331547    9.040568    8.924504
H   12.610322    9.544882   12.977409
H   87.376854   51.543243   10.898903
H   25.173553   39.446297   61.395271
H   44.266514   73.264786   16.168081
H   58.249989   14.426354    5.934133
H   82.574196    9.716072   89.141609
H    8.973953   72.569725   50.571228
H   36.574875    8.655263   77.487068
H   15.388538   18.179153    3.756154
H   68.482300   73.226196   45.612846
H   14.344490   36.365944   67.497017
H   22.513117   90.563026   14.928335
H   19.655785   72.069283   60.966572
H   46.494335   69.052811   10.986608
