100
TIME:    7.484, STEP:  7484
H   11.210098   35.702003   92.294205
H   93.787430   10.409999   49.996059
H    8.414064   12.333026   35.489719
H   82.732773   24.310108   29.938763
H   28.135897   72.632942   62.783173
H   11.960011   93.100121   19.911385
H   60.732121   66.694427   75.711700
H   31.658653   36.062847   21.037422
H   69.656868   66.737289   28.995335
H   70.345070   23.844149    0.746681
H    4.111572   67.377579   18.853086
H   70.199356   98.825073   60.209663
H   66.519875    8.989544   81.367058
H   84.518547   82.008095   26.775707
H   71.506660    1.525061   90.997101
H    0.607080   57.151001   11.803368
H   22.288460   76.978668   54.686398
H   61.109730   30.667419   40.092705
H   61.827114   92.315323   57.646549
H   90.886032   46.880703   25.878092
H   20.165543   11.160957   54.112728
H   79.878708   54.019104   81.946564
H   85.820015   33.755333   18.224070
H   23.686079   26.358614   51.247421
H   61.913399   92.640915   91.810951
H   12.319637    5.474419   86.604958
H   16.724863   31.375372   48.463924
H    1.064124    5.767509   14.153068
H   73.903130   28.098787    3.400074
H   87.963425    5.610458   78.345299
H   10.597152   93.160645   17.268745
H   38.301510   45.735119    6.432672
H   97.519295   20.917166   72.014778
H   94.318092   87.858833   56.462006
H   94.699440   93.026237   80.384720
H   23.208900   71.607727   95.897346
H   97.612320   30.456015   98.175385
H   54.663475   21.990612   50.565636
H   29.169971   18.353090   19.057076
H   58.283524   11.555976   26.859686
H   23.772936   12.978322   18.664274
H   69.503166   70.951660   62.029919
H   75.694550    8.382179   42.050388
H    1.465994   38.261131   12.481624
H    7.474621   36.611485   96.535713
H   81.519798    5.661778   13.565832
H    0.203538   31.844173   97.302635
H   56.644405   72.452759   31.645031
H   83.794930   12.625744   45.934914
H   82.867920   44.644703   60.252098
H   42.987705   47.111862   32.318176
H   68.850937   69.279892   82.758698
H   64.114845   65.403503   68.210976
H    3.382607   85.095444   62.064468
H   44.908005   14.466603   64.006012
H    2.917072    4.661282   37.853775
H   70.703918   73.598701   67.778114
H   68.781662   70.115883   20.784578
H   80.520805   54.993908   36.939217
H   65.150597    3.032348   50.747826
H   31.797575   30.531387   30.884483
H   33.296150   58.282059   56.728325
H   82.149727   96.587921   20.270111
H   56.953617   82.531586   23.948124
H   29.374870   63.110813   92.520958
H   41.593384   70.221550   88.696335
H   87.112854    7.104694   28.390322
H   63.394676   45.555717   23.981079
H   29.903534   12.033813   90.848877
H   82.020912   24.546778   85.970154
H   84.381187   86.190552   72.375862
H   56.977451    3.101140    4.621024
H   19.020403   48.122578   69.861877
H   65.452873   75.756348   58.479553
H   22.982771   39.334980   68.743622
H    2.581102   87.227196   92.351387
H   46.489948   78.041695   23.470934
H   83.592255   61.361149   27.752748
H   20.398848   31.535854    1.177772
H   32.502060    1.330017   76.167946
H   57.326607    6.707772   27.291351
H    2.890542   93.005508   60.891834
H   91.254478   32.277012   42.681839
H   65.035347   52.581417   79.869164
H   87.921219   80.751549   22.262766
H   79.047775   83.954468   61.494888
H   66.994225   59.204704   80.409309
H   76.392326    6.196402   17.980484
H   10.997365   77.475273   66.981331
H    4.652139    1.362087   91.752289
H   30.298847   77.545326   91.510178
H   32.039112   58.347580   76.124840
H   65.192322   52.077526   97.753792
H   70.565193   67.218468   31.433378
H   27.198990   79.358749   88.061310
H   12.069350    0.197675   80.890480
H   68.557640   97.171326    6.776830
H   23.831469   56.766399   28.640757
H   52.192497   69.119926   18.173489
H    4.072222   86.582199   76.783234
