100
TIME:    8.491, STEP:  8491
H   43.110100   43.355827   91.372269
H   65.975693   64.980591   13.489322
H   25.723413   84.780792   23.668598
H   82.901794   82.820732   74.742989
H   19.112448   53.348347   35.478500
H   96.344116   92.009163   19.637836
H    7.957506   34.691093   54.460423
H   52.510437   23.181589   28.578239
H   44.902885   69.917618   65.610382
H   42.840645   38.303181   40.177711
H   10.442886    7.896444   21.853754
H   31.763542   49.300472   88.530754
H    2.306692   48.037079   81.294647
H   34.657173   78.904243    3.408013
H   83.737679   11.574844   42.568130
H   60.118668   69.075035   28.213966
H   41.311378   43.583874   46.357582
H   82.637970   81.667000    5.187308
H   77.514328   34.561466   10.701610
H   63.750454   25.498301   94.439400
H   60.408745   10.910908   26.784273
H   76.420784   55.355911   96.191223
H   72.375114   25.568487   89.412201
H   30.121241   38.405243   76.459106
H   25.897083   12.780960   99.247902
H    7.571390   75.788803   91.841141
H   29.890169   89.516006   68.445175
H   16.096045   52.770878   47.440689
H   95.799110   19.461981   55.797661
H   26.575283   80.687027   58.398621
H   50.230907   83.459923   37.598183
H    1.884327   17.915699   13.209633
H   68.452530   47.240105   62.733292
H   36.867615   95.573303   14.039209
H   69.638145   16.782127   41.652180
H   10.745871   50.482735   92.732033
H   94.196587   93.575447   77.522972
H   13.044132    3.560860   21.627861
H   86.664024   96.414207   21.471249
H   63.435165   17.284101    6.088368
H   54.951630   47.527878   42.388760
H   84.638596   74.900620   13.441800
H   84.360748   14.422781   14.787659
H   37.164791   55.166740   10.940242
H   20.124775   96.884285   82.708794
H   68.520500   24.865055   17.656923
H    8.075774   86.607185    6.971822
H   56.705868   82.824539   93.952538
H   13.232216   29.225563    5.763571
H    4.009888   59.971889   89.841759
H   42.918560   49.892448   42.935806
H   17.791300   75.837662   16.654991
H   84.996696   71.242432    9.728037
H   80.058746   68.669617    6.501235
H   64.728859    2.715000   72.564651
H    4.171289    3.602015    3.573120
H   34.544289   44.542351   63.552208
H   93.798767   75.016960   94.845482
H   59.943157   97.542885   59.632851
H   98.701317   80.434875   22.106346
H   95.318985   83.700195   52.370045
H   97.555717   48.909042   11.163191
H   50.515255   27.872725   51.217102
H   26.101162   88.017105   96.606842
H   69.347198   82.682190   86.298523
H   79.733437   20.160423   48.238544
H    6.319324   41.917744   77.007370
H   93.834167    3.146170   72.121506
H   80.092804   39.677223   27.691841
H    2.472584   75.124344   83.834335
H   52.402584   17.672672   60.298500
H   74.053452   69.665428   78.432358
H   53.362274   98.312401   44.041599
H   43.287495   12.024899   98.647835
H   71.491257   40.817760   45.094913
H   26.389208   51.767090   24.593138
H   37.947098   90.882446   41.331612
H   30.899946   95.519051   83.371216
H   68.685997   28.577976   12.415806
H   83.119011   46.474754   89.414055
H   77.040672   17.125650   87.478409
H   78.453568   99.535889   76.646416
H   54.949875   49.117710   38.583271
H   34.316803   38.752785   87.895775
H   38.889587   17.758228   24.645958
H   55.873753   20.941647   31.424149
H   34.249546   85.987282   28.426933
H   92.587669   25.615540    7.539516
H   31.898422   21.406923   58.745369
H   15.620088   59.935417   27.750280
H   71.509392   31.920216   12.776511
H    6.546915   34.083328   95.316475
H   29.742847   82.289330   75.626648
H   67.887039   28.312000   99.333931
H    9.785923   89.157303   11.200970
H   95.243347   60.431519   28.877922
H   88.626945   54.959755   48.863655
H   21.887720    6.595319    8.423468
H    4.221488   73.468391   33.827320
H   66.618591   60.738232   79.775421
