200
TIME:    0.518, STEP:   518
H   18.013571   61.552372   20.093204
H   30.442110   36.936646    1.182907
H   12.311021   81.306168   59.041191
H   27.213490   80.223091   37.230064
H   12.258546   90.775116   49.661530
H   80.574768   45.269638   57.320923
H    7.386947   55.106880   55.032269
H    9.118451    0.891011   15.204532
H   98.718407   83.338516   40.937611
H    1.075113   71.004784   85.107033
H   21.883440    0.532879    1.746729
H   31.927368   49.443062   25.988340
H   17.997341   96.234108   49.897820
H   91.263908   54.379833   55.661861
H    6.200006   74.084648   42.294579
H   21.197216   14.512058   48.325958
H   97.285324   20.738613    1.934715
H   29.960819   96.531281   38.571079
H   74.274979   19.637375   46.576248
H   90.940697   75.886925   26.694065
H   61.421364   90.635773   13.104099
H   83.840034   59.440437   59.861664
H   86.680397   60.520172   42.465752
H   14.496579   90.593742   90.714363
H   15.329850   23.884748   35.490566
H   18.430967   74.673828   97.774864
H    4.279347   64.374916   60.259384
H    0.890244   81.597527    1.462769
H   22.777416   48.079781   36.710518
H   80.486908   28.211607   89.009415
H   12.998541   63.063694   16.534698
H   26.870716   70.021957    0.447524
H   20.406181   14.967474   76.574829
H   87.225777   63.881218   43.149445
H   34.647526   78.313828   32.104481
H   23.980316   43.583427   82.664299
H   94.243561   68.428772   88.041969
H   19.164082   51.946468    2.668019
H   42.781418   36.445835   50.611084
H   87.416687   38.545284   52.837006
H   80.587029   92.237274   10.751740
H   27.176531   37.277397   31.587955
H   71.696365   81.395683   60.651051
H   36.661942   76.736000   28.690920
H   38.275597   84.776917   54.396111
H   37.147659    6.603598   45.711323
H   85.212952   12.592295    2.274327
H   83.347801   65.546364   37.653641
H   97.831573   18.202450   61.366764
H   52.168980   19.056059   93.951309
H   71.595047   66.977425   16.851345
H   10.511126   40.482891   69.518623
H   59.674156   86.469368   11.563042
H   18.269108   88.050308   85.819969
H   65.431747   70.202301   81.782555
H    1.741892   65.501442   87.751434
H    4.637108   17.797462   46.672504
H   70.445908   65.041992    0.285875
H   22.315084   79.847763   13.850230
H   36.673565   94.428139   61.855118
H   49.519165    9.952551   34.114243
H   94.932549   17.083445   51.197105
H   79.106140   30.965437   75.505981
H   30.861713   65.548958    9.874435
H   75.817261   80.223450   29.297480
H   27.834520   27.361643   37.860306
H   75.790871   17.298031   91.578712
H   95.784630   92.081978   92.775475
H   26.410986    9.610019   58.461113
H   43.636692   46.475346   50.967747
H   58.343208   81.400375   80.717468
H   24.327370   16.514555   42.818836
H   86.317032   30.469219   90.186813
H   16.922205    2.854061   68.665810
H   82.530106    5.371752   54.541168
H   60.340538    9.261989   61.060860
H   94.252563   40.299477   68.213295
H   16.258453   11.032167   38.461342
H   13.644108   42.078938   28.781277
H   64.087173   89.116516   81.077667
H   55.167065   25.403566   97.006470
H   38.860447   63.591030   79.263054
H    9.915101   16.715727   82.145790
H   15.608503   70.950081    2.912210
H   29.008583    2.263576   49.903847
H   32.499397   76.047546   21.995750
H   48.314865    3.363400    2.408664
H   73.019630    8.197514   21.927742
H   74.194717   72.733887   78.171997
H   22.051712   98.507866   51.807064
H   29.589252   37.292675   79.517960
H   82.118980   90.974579    4.433737
H   60.465923   13.726772   87.812241
H   47.561855   84.445992   76.738045
H   32.169167   53.165718   79.518166
H   57.759438   33.924805   15.990664
H   83.076683    4.663702   10.301952
H   99.252357   32.758507   51.225697
H   30.718620   66.993195   53.866440
H   72.038124    2.444685   27.318277
H   22.269560   88.112793   82.030434
H    0.909854   80.862457   64.331139
H   28.942076   27.010237   34.387608
H   35.234184   68.452759    1.202087
H   24.970221   23.819359   34.100605
H   98.428825   13.162077   30.875380
H   78.827415   33.548664   54.965439
H   63.113232   44.948166    7.991793
H   79.861519   36.580505   12.575306
H   13.297084   24.184313    6.897868
H   50.852158   93.650993    0.991444
H   97.156631   70.336121   93.677773
H   52.265648   83.500656   87.888481
H   62.282463   13.404011   67.785095
H   54.573128   93.544830   17.025204
H    2.693158   97.664772   91.475693
H   21.145023   12.357228   87.420944
H   39.360668   40.679928   28.421562
H   29.420008   68.150909   69.800003
H   78.119072   52.223324   59.713249
H   43.456062   23.606800   78.410255
H    6.293961   20.894413   56.365570
H   38.938667   10.097702   32.276035
H   99.981400   57.314911    5.691157
H   68.597923    2.068917   83.618721
H   57.907253   69.958466   20.163736
H   88.476509   50.487961   60.318405
H   69.347847   89.750328   37.350491
H   95.888847   42.420719   78.554924
H   81.219727   22.831692   71.237740
H   59.831017   75.259552   14.035290
H   71.029396   88.808640   15.882909
H   91.529976   96.120171   99.443100
H   87.289078   20.130665   53.128811
H   18.159565   96.343445   43.642273
H   54.953766    1.270063   79.586006
H   69.352966   87.272926   69.178001
H   93.589592   55.540874   78.805840
H   53.579681   48.221375   71.484337
H   43.598534   95.756950   87.732910
H   64.380646   54.893379   23.890106
H   44.440353   49.457596   52.727520
H   46.068787   61.877834   90.007431
H   44.974525   16.464598   82.731178
H   53.369244   60.547211   58.159031
H   56.126099   66.765335   16.531769
H   51.306267   95.560356   45.291363
H   35.061485   63.070473   67.230003
H   72.617157   53.185333   95.180832
H   18.323734   91.709908   79.593567
H   66.421333   66.031235   49.245495
H   45.489830   99.417519   39.440437
H   89.090347   21.443707   93.705658
H   17.258747    7.523821   69.082695
H   24.636288   61.220783   65.782722
H   71.754799   44.218220   62.613777
H   62.221233   69.220734   84.047531
H   49.998497   32.199493   16.237106
H   99.658272    0.686842   92.295067
H   60.562908   45.600861   88.909561
H   56.686699   73.115211   76.024300
H   30.551588   21.615631   33.135612
H   77.185875   22.449234   37.116459
H   21.479082   28.346462   59.304802
H   56.292366   31.521383   12.556091
H   16.703381   55.593784   60.782146
H   70.112801   93.070503   55.168789
H   23.875065   43.580978   59.508381
H   97.850410   27.266146   36.200493
H   39.159546    8.361808   87.272797
H   74.054077    8.939883   35.952744
H   36.559181   55.121307   58.311806
H   43.044304   65.508926   82.601883
H   67.802689   67.888405   80.689148
H   58.516907   92.945267   86.159874
H    9.490441   49.162498   23.553457
H   32.561855   61.605469   98.537254
H    4.193847    9.465981   68.434952
H   68.492073   14.916919   65.883392
H   73.076271   57.437187   90.306679
H   76.342331   95.151619   35.255638
H   24.834986   30.445400   79.765015
H   52.835484   89.875137   11.574280
H   57.534950   25.734821   87.417610
H   89.118011   76.276657   77.251511
H    5.080257   38.569565   85.345558
H   41.032104   99.762657    5.424959
H   77.065292   79.000191   35.254028
H   98.567604   62.413113   69.720627
H   54.668907   56.761059   69.215347
H   61.100735   21.826752   77.316231
H   45.373932   92.484100   21.083426
H   10.275498   24.137745   64.174461
H   30.246733   74.625931   38.915829
H   75.354477   41.838108   20.906918
H   76.006851   11.065603   25.757637
H   11.309176   93.139763   12.849957
H   20.830179   91.881050   39.126541
H    8.206117   12.389761   65.583931
H    5.108235   25.574203   93.886505
