100
TIME:    1.735, STEP:  1735
H   99.991852   62.912979   97.557571
H   53.008080   98.813301   87.443565
H    9.577940   98.727440    2.968476
H   81.767822   61.168236   45.062420
H   79.630814   11.825414   18.661613
H    1.111784   99.328438   50.569027
H   62.037388   78.493584   26.132118
H   83.518715   38.701237   48.892639
H   10.978386   19.480347   90.874763
H   27.426321   41.295387   75.631706
H   38.869553   36.053837   72.624832
H   89.619553   10.657158   69.429893
H   32.899345   56.737495   52.683540
H   69.174599   99.728096   89.273994
H    1.603355   15.050131   67.374161
H   31.764389   59.981331   89.021255
H   84.576065   96.735306   31.322641
H   38.220619   10.327642   39.397263
H   72.285072   51.140144   54.767681
H   45.773369   68.967392   34.459480
H   61.319275   83.492676   10.153812
H   28.711063   46.389938   71.523659
H   62.579277   80.511574   82.709320
H   57.841225   57.490330   78.218491
H   67.530388   48.572449   49.363274
H   38.703548   75.910095   26.551107
H   12.467419   70.356949   34.395458
H   86.147629   37.423641   24.121790
H   48.896851    6.505002   75.158134
H   67.520958   47.898819   21.315968
H   84.351723   77.631149   72.119415
H   75.306183    4.578065   38.646416
H   92.568436   41.541023   54.099457
H   51.409370   14.720219   98.659088
H   37.645683   27.767586   30.377815
H   23.406403   20.776854   14.675267
H   46.207840   40.997414   45.176456
H   92.281075   27.198689   44.874989
H   72.722549   43.470863   75.835922
H   99.776207   49.758778   74.541092
H   16.673622   15.715472   83.220383
H   75.689270   89.725121   84.313385
H   26.185408   73.904221   26.794540
H   68.567833   41.849228   50.372692
H    6.157524   63.434116    4.578409
H   55.703632   96.009254   90.215889
H   54.400074   19.333666   42.448677
H   56.332073   13.246832   75.929909
H   15.747136   88.756920   75.265518
H   62.278294   57.157207   62.315212
H   43.412251    2.140102   71.710419
H   89.451180    2.743623   60.163692
H   44.870216   32.068848    2.103015
H   36.513783   78.899162    8.377745
H    2.635940   10.603964   15.128845
H   95.737106   10.708546   33.563309
H    6.244108   39.484459   21.000509
H   96.865570   13.038096   68.865921
H   27.112694   12.076194   78.287033
H   44.526012   61.146915   14.262164
H   69.145798   97.887398   79.121117
H   37.332611   11.795357   16.850433
H   91.916534   88.838982   14.530576
H   62.179970   51.232460   80.036186
H    1.186259   22.272198   57.139103
H   94.761604   56.021034   48.772091
H   48.366531    8.347219   50.828503
H   60.517464   16.763634   49.145634
H   43.375099   25.120285   51.417267
H   65.531799   35.408333   98.079712
H   66.938255   77.351219   41.338840
H   30.908728   93.943649   83.650566
H   93.865952   32.485981   17.260189
H   92.006310   39.585419    0.092353
H   45.822479   31.112398   32.923199
H   66.678230   18.769442   79.185600
H   24.481371   76.169418   21.732515
H   13.493785   37.273209   10.256625
H   44.716682   48.419773   37.036049
H   14.437943   14.461718   71.449409
H   44.834644   47.231030   83.685799
H   71.502777   55.558426   41.698196
H   27.576160   36.215240   95.150146
H   69.523506   60.627789    4.956856
H   67.849319   40.359344   79.563705
H   11.358051   72.785759   62.266930
H   83.031441   77.204285    6.274622
H   83.885239   66.386307   77.707924
H   91.687935   97.570656   14.004887
H   12.940805   37.893211   86.239647
H   95.025856   67.115082   70.101761
H    6.659492   25.994150   66.579018
H   96.605507   79.617599   53.139572
H   14.921633   18.472795   43.800499
H   26.595413   94.318329   55.954796
H   37.225494   27.217436   77.833847
H   24.886070   67.248589   37.407913
H   13.235471   31.010162   28.276188
H   26.060925   44.329197   99.718979
H   46.990738   34.137714   30.580822
