100
TIME:    3.871, STEP:  3871
H   55.542145   67.030914   95.602005
H   93.590614   14.623480   22.181166
H   46.293701   52.399025   77.903221
H   82.126343   73.164787   27.979944
H   60.498856   83.035225   60.745758
H   67.997200   97.014351   62.105011
H   50.090382   22.725712   93.170174
H   15.633331   23.492893   52.772266
H   58.471367   14.112633   56.422352
H   69.056496   71.965187   59.276146
H   40.184036   22.000370   66.874290
H    8.093849   17.723612   17.387022
H   97.028595   27.506668   40.383034
H   63.411659   93.144356   51.825718
H   27.587536   24.253887   64.698799
H   45.880386   73.157219   11.714254
H   12.824426   38.006969   25.780752
H   83.859703    6.453841   65.342957
H    5.560616   40.747253   67.300034
H   88.227501   23.611258   79.888329
H   34.566086   70.847717   52.176041
H   33.496887   49.222794   89.626892
H   34.060600   63.139626   21.596481
H   59.383659   83.108246   19.578648
H   91.135529   79.170044   65.128029
H   28.906847   12.267369   26.342062
H   28.277826   81.564835   76.777443
H    5.918599   37.124893   94.725182
H   95.341553    0.299722   74.188179
H   49.424164   95.032127   91.122345
H   68.405327   69.174797    3.117744
H   10.174476   45.558754   40.906181
H   43.025661   85.261818   46.527206
H   41.660934   18.968575    8.672554
H   84.548126   66.302177   60.443802
H    9.130484   88.572845    7.324895
H   51.077827   62.771469   13.484853
H    3.997775   88.109001   95.607903
H   81.676849   97.076347   69.183632
H   98.588844   49.793640   42.596676
H   70.696411   89.007690   33.544781
H   83.717697   85.590836   84.664459
H   44.584026   86.713181   81.079735
H   32.168869   77.646179   59.219482
H   20.875429   79.160736   87.362366
H   28.146442   36.750202   98.885567
H   71.976852   35.356590   62.624771
H   56.446148   35.240005    8.093422
H   78.182297   11.853981   90.058105
H    7.063952   89.655632   12.922230
H   43.249287   95.923058   94.232025
H   93.256653    4.539004   19.937557
H   89.170830   44.454102   78.048439
H   87.049980   44.048157    2.633788
H   32.578964   97.832703   33.271038
H   98.409714    8.462225   60.848831
H   41.655888   77.850533   24.151876
H   37.813225   11.319283   13.846790
H   95.575005    2.327356   14.303963
H    3.573676   25.325857   53.510139
H    3.885904   98.553734   12.582874
H   61.525261   91.911362   20.203140
H   36.862392   43.133354   68.024376
H    8.853659   62.851784   22.041851
H   85.969307   51.674213   56.058598
H   63.543495   49.833900   75.067535
H   76.990768   82.192352   53.954449
H   12.969452   38.924393   51.258785
H   49.833389   71.640961   17.449512
H    8.813253   42.842979   93.581909
H   99.109810   32.017479   15.712521
H   54.784775   23.054367   40.038296
H   54.595245   26.830952   62.498810
H   44.996410    4.414405   73.152519
H   48.807102   34.157444   94.845619
H   17.168932   55.668526   35.460514
H   18.416311   91.033981   59.509754
H   13.846950   97.604912   28.220545
H   47.140312   42.148380   60.874977
H    9.684118   98.130318   87.431175
H   86.626053   69.328934   11.349738
H   31.770393   69.508133   63.086914
H   62.717289   71.871735   98.593628
H   16.469210   43.409126    9.861421
H   63.843781    6.750393   72.502411
H   62.204113   51.243927   10.597264
H   25.690069   21.899696    8.127598
H   18.266287   95.372795   55.485901
H   36.018906   78.641304   96.531013
H   24.089884   50.013474   62.593880
H   82.439850   82.454018   15.210244
H   64.711227   86.622612    7.286380
H   33.592003   43.666878   18.354898
H   21.374332   48.038063   87.820137
H   89.662346    2.988232    5.039090
H   13.650359   42.869209   67.506721
H   55.340454   89.829506   14.564205
H   21.075468   49.196930   94.094994
H   24.307732   53.536655   20.799782
H   79.653252   79.296303   24.834002
