100
TIME:    3.030, STEP:  3030
H   12.415953   44.154839   96.371964
H   16.985359   69.027939   69.131485
H   31.837729   91.894791   87.771523
H   81.985184    7.813639   74.079529
H   68.031616   15.625363   83.549362
H   81.035164   97.925468   78.817314
H   94.168480   65.939049   27.402885
H   81.734268   50.734768   29.989368
H   79.144753   94.971146    9.358765
H   92.039757   59.889671   26.341173
H   18.411804   88.161301   47.884212
H   40.194702   75.568985   77.250511
H   50.523369   78.388092   23.971874
H    5.053393   95.736549   87.824165
H   17.356712   99.375839    5.122159
H   79.694397   46.714264   81.524757
H   80.452522   82.381409   49.221203
H   65.894005   47.351814   94.498718
H   92.460167    5.463965   22.994860
H   10.886856   41.469387   22.629084
H   84.472229   54.571999   75.001984
H   52.869400   48.106354   61.245789
H   45.289162   69.979424   45.659073
H   37.521698   73.021790   82.039680
H   21.213791   45.865700   58.917297
H   32.765629   37.325390    5.169853
H    0.798119   16.523054   60.093510
H   76.878807   97.869881   66.929680
H   77.055038   23.997179   13.942705
H   17.177212   15.847873   24.264652
H   35.304379   93.761780   69.654991
H   57.073219   68.793571   18.761757
H   83.786835   46.792763   70.763283
H    6.125461   96.041420   44.101364
H    5.453066   29.875488    9.235146
H   36.001400   22.506834   10.224298
H   70.414711   93.569809   47.217403
H   38.755539    3.496645   36.259937
H   17.174454   15.398661   50.682541
H   77.800827   28.524542   76.428993
H   28.172346   60.147938   13.731368
H   59.302025   47.847290   45.152756
H   37.340000   81.669952   20.334003
H   85.873474   63.555733   76.990807
H   93.825691   12.344118   15.396167
H   38.996441   20.709400   95.472084
H   65.406540   89.618927   54.546623
H   56.401234   26.579981   56.057152
H   53.597672   81.504753   23.605608
H   89.429344   76.861488   71.741486
H   43.313450   77.116425   85.364670
H   52.384693   82.578094   75.148705
H   71.731270   39.577698   26.891266
H    6.527782   57.772667   65.522003
H   99.539688   24.125481   26.119478
H   97.357437    9.347567   89.478455
H   88.340797    2.117162   44.165718
H    0.436508   90.741241   35.510818
H   29.246445   66.793625   78.869041
H   59.068794   60.685001   77.430183
H   50.835640   37.662838   78.152725
H   91.373985   99.739273   58.258339
H   79.767601    0.520944   25.694290
H   51.104759   58.276947   44.877537
H   52.589413   18.842628   77.739677
H   15.207338   91.642647   25.341480
H   44.466255   53.115986   13.350497
H   71.062904   90.825623   11.054122
H    7.915873   32.069847   70.197334
H   91.773254    0.542111   95.352814
H   25.816677   89.238228   25.802185
H   24.130098   50.965363   78.464752
H    9.429586   68.428642   84.058098
H   63.512028   57.636177   23.126640
H    8.260798   32.957592   31.093006
H   97.286674    1.766721   92.049225
H   42.059414   63.927620   44.636723
H   74.335236   52.597141   81.775772
H    6.813392   44.618664   51.487900
H   50.928474   43.933956   59.883987
H   70.174606   60.628399   61.084675
H   68.669449   64.015762   33.411232
H    9.506939   57.832825   18.492283
H   58.608341   71.442596   86.673218
H    4.792983   59.357525   54.027885
H   81.556335   20.350552   52.195644
H   69.521568   83.047234   68.025391
H    4.731058   62.705261   64.231514
H   18.564045   25.466383    3.410451
H   98.445312   84.612869   32.533417
H   48.022705   37.043110   97.449783
H    2.480580   23.379236   91.259422
H   79.683533   18.431486   53.318993
H   40.089062   97.024193   31.116367
H    4.202454   78.320984   85.713554
H   44.187180   76.080086   10.945614
H   22.095158   41.565945   62.931541
H   17.989218   42.036316    7.553757
H   64.371239   49.911434   91.242088
H   27.416063    0.880570    5.849631
