100
TIME:    4.851, STEP:  4851
H   89.269447   77.159950   94.704788
H   66.502480   67.733810   83.977112
H   63.138947   22.904121   66.403893
H   82.290833   32.790031   74.264168
H   51.721085   61.586548   34.173187
H   52.798817   95.952644   59.157734
H   98.730125   88.900116   69.807526
H   38.607262    8.275697   62.792217
H   34.381096   19.889648   94.733315
H   42.274574   86.036537   97.648041
H   49.026825   61.433048   72.475952
H   70.693275   66.846230   47.629265
H   34.514694   68.240654   43.002197
H   14.888461   90.123726   26.403223
H   39.506950   36.716217   17.588696
H    6.475229   87.442764   30.366074
H   34.018654    2.827627   14.994017
H    4.803375   58.783207   31.364767
H   20.824368   81.858963   18.932230
H   61.820038    2.799566   46.611244
H   76.411507   73.285492   25.580135
H   27.450439   50.523758    6.170797
H   20.976189   55.169350   93.556641
H   68.331024   94.860321   46.795959
H   56.084259    1.450096   72.365578
H   24.432726   83.249222   34.252285
H   43.771896   40.826939   96.217140
H   23.228817   82.867996   27.120043
H   16.651772   89.212883   27.862221
H   87.002594   70.777367   69.029213
H    6.971670   57.053356   25.583260
H   72.052345   18.485237   50.182671
H   12.054787   13.560205   34.813347
H   83.067490   29.157440   67.386269
H   60.188690   92.221573   20.120720
H   94.327118   65.379799    4.176023
H   45.072823   26.882263   90.705246
H   63.489101   70.179619   64.761772
H   40.310871   75.722588   74.214432
H    6.283823   58.049660   19.700544
H    3.720696   22.633520   56.633160
H   95.640221   29.572863   30.703562
H   53.025341   92.589951   51.866035
H   69.589813   94.066711   55.040665
H   35.867535   40.495239   71.223656
H   15.503088   55.442219    2.867686
H   79.633102   88.651268   72.031685
H   56.498486   45.333694   68.730324
H    6.831848   30.689869   50.966866
H   27.617695    4.566671   44.378342
H   43.174519    1.310347    4.564150
H   40.881401   13.602461   55.603912
H    9.495681   50.136475   21.130068
H   64.350395   28.055267   45.877098
H   54.551300   83.720711   41.607677
H   99.635910    7.430942   27.487320
H    3.785118   49.573250   17.358055
H   64.839981   18.770529   88.603989
H   72.864052   43.736099   39.069138
H   38.902515    0.651103   25.636604
H   65.705475   52.976933   36.173569
H   26.743723   82.789658   75.862808
H    3.394276   76.259445    0.822820
H   76.149757   68.188614   95.433182
H   24.866224   73.403503   47.321812
H    3.341391    1.115581   33.012306
H   98.363220   16.074799    1.267771
H   45.274086   94.970535   98.108452
H   98.674057    1.224412   55.987518
H   28.667913   92.133301   91.518311
H   67.991341   65.337967    3.955562
H   73.979340   90.529556   11.788871
H   90.696671   78.355476   37.369263
H   23.419376   42.398830   14.923656
H   96.058113   35.555607   69.136688
H   40.339554   18.475912   69.517654
H    7.393939    6.093498   76.840996
H   59.889126   33.525120   82.342613
H   94.136833   39.269810   71.808205
H   61.622986   44.758175    3.003313
H    5.798541   79.467484   69.921867
H    5.301015   75.908279   81.139671
H   24.711000   88.245178   91.928238
H   83.890640   27.269854   20.353424
H   16.125555   45.452621   77.502403
H   39.646587   87.239922   78.651306
H   91.142036   50.645706   54.857956
H   34.039093   16.911905   45.295013
H   56.355820   24.076113   88.515877
H   37.444988    9.691055   97.629898
H   22.545616   35.372013   35.906048
H   37.223774   60.320770   25.959761
H   96.412132   73.075462   94.139816
H   16.094902    7.481239   53.895756
H   72.719902   15.206131   27.556404
H   94.594269    4.171468   16.888741
H   77.552910   46.069515   58.203552
H   24.671812   57.541046   78.408653
H   77.622711   57.761051   38.715202
H   40.524807   54.147259   30.427946
