100
TIME:    8.839, STEP:  8839
H   19.576622   11.443136   91.053665
H   56.364487   83.836609   35.432018
H   31.705194    9.817222   19.583836
H   82.960205   68.483574   55.668098
H   15.994116   81.242081   26.043365
H   90.949097   91.632149   54.102295
H   89.718178   58.190758   81.674477
H   25.158325   53.286968   96.625572
H   36.348381   36.458939   43.703930
H   33.335640   43.299946   53.803322
H   78.072784   21.898129   88.332161
H   18.480431   66.744011   63.759331
H   80.115906   26.974731   46.711563
H   17.427156   77.831612   29.891926
H   87.964485   80.489784   25.833481
H   46.126663   38.637779   99.326233
H   13.327306   66.600624   78.037392
H   90.079636   64.733223   93.123611
H   82.935898   49.161472   29.034588
H   54.375546   18.108027   18.132776
H   39.757927   76.267303   17.339006
H    9.783883   55.817886   66.555786
H   67.728813   22.739553   79.455841
H   97.787033   42.568329   50.613674
H   13.451497   85.183350    1.817091
H    5.929918   65.529770   59.093609
H   99.881691   75.051407   75.348251
H   86.732513   69.014343   58.944931
H    3.366159   51.035061   39.347099
H   39.918922   72.074112   86.064026
H   63.928204   14.666273   10.065529
H   23.857014    8.301306   80.993584
H   92.963760   21.778908   94.083878
H   51.571167   63.681091   99.379265
H   60.977440   90.433693   62.826038
H   40.996342   77.740585   91.638161
H   27.574440   80.831306    4.944015
H   98.660957   97.192894   46.184227
H   71.976402   88.831444   87.747894
H   30.658773   84.705864   33.468430
H   31.167925   59.467545   50.587490
H   55.311142   76.265305   31.207928
H   87.355621   16.510460   39.922855
H   14.944851   61.010460   44.964443
H   89.938065   83.157784   12.488345
H   64.028191   31.501301   19.070726
H   10.796515    5.532652   10.313738
H   56.727108   86.408829   15.484379
H   23.403633    0.405152   91.882294
H   11.314537   65.269310   65.511070
H   42.894665   16.295086   46.605057
H   34.704952   43.545513   93.810524
H   92.213066   73.260254   89.517319
H   71.998077   62.992691   21.856598
H   37.020973   33.212334   75.522354
H    4.604723    3.235953   91.726364
H   56.604927   34.501030   96.649803
H   67.885681   42.153008   85.882103
H   87.390846   12.247716   32.915291
H   75.735313    7.182281   12.208397
H   17.271334   67.515137   25.238300
H   85.204521   45.669907   95.417488
H   74.141220    4.125148   27.353699
H   49.998753   89.912796   87.160248
H   83.158661   54.888470   18.706324
H   58.355141    2.860757   68.815025
H   78.398788   53.947681   93.808395
H   69.795532   23.049522   88.757919
H   97.435455   14.672157    5.865154
H    9.540496   92.605057   83.096237
H   41.349697   93.993767   56.124794
H   45.396790   58.110741    3.941606
H   30.672394   81.097191   35.118046
H   35.627735   89.999611   77.970467
H   88.255112   41.330181   71.480591
H   34.617142   74.070793    1.177448
H   69.552567   60.763508   47.504555
H   47.247051   72.765450    2.593313
H   85.375511   27.555790   16.299501
H   66.052483   27.517530   59.433464
H   83.853477   20.725870    8.278142
H    4.568148    1.794507   47.532867
H   76.961159   54.937534   71.725380
H   58.257202   68.531593   56.110424
H   21.945190   95.988693   90.911819
H   47.863529   33.724464   55.590225
H   57.491673   60.684853   45.020866
H   98.184471   97.768654    3.931188
H   39.120121    2.031385   55.899178
H   84.852615   45.616844   40.189545
H   85.750969   50.709858   20.125633
H   32.295391   60.256607    1.948015
H   52.050404   92.728905    2.538020
H    1.520879   49.424793   22.798216
H    3.768533   57.986744   19.196989
H   23.986786   46.689087   10.903185
H   61.004021   74.930885   28.849834
H   21.215998   23.814484    1.436758
H   87.643578   74.971138    4.677753
H   88.235840   51.809368   46.251614
