100
TIME:    8.654, STEP:  8654
H   32.086906   28.408010   91.223038
H   61.473892   73.812576   23.766983
H   28.525225   96.507858   21.755333
H   82.929153   76.105339   65.809029
H   17.651850   66.413513   31.058910
H   93.817139   91.832573   35.780418
H   99.414757   45.698120   67.207237
H   39.698959   37.282673   13.611669
H   40.896034   54.245880   55.349705
H   38.388588   40.643620   46.559822
H   95.281036   14.454837    6.152787
H   25.541855   57.470867   76.928047
H   91.912704   38.171669   65.095627
H   26.586683   78.401833   15.812832
H   85.717476   97.014900   34.729774
H   53.564941   54.818504   14.683102
H   28.203926   54.364567   61.196114
H   86.122513   73.735374   99.537186
H   80.053741   41.399975   19.288609
H   59.359333   22.036764    5.537138
H   50.736092   94.683746   22.360197
H   92.047752   55.572296   82.310257
H   70.198830   24.243441   84.748734
H   14.976164   40.355194   64.353989
H   20.067749   99.853836    0.451480
H    6.802540   70.983566   76.502686
H   15.834478   82.740921   71.678513
H    2.342855   60.379169   52.829170
H   99.343346   34.250240   48.092369
H   32.825035   76.652817   71.356842
H   56.646595   98.077095   24.702141
H   12.176069   13.412476   98.119972
H   79.933365   35.314064   77.417618
H   43.754623   80.635284    7.172701
H   65.581551    4.440773   51.569820
H   24.914728   63.250687   92.219673
H    9.830548   87.606209   90.366783
H    6.307287    0.577717   33.129837
H   79.784477   92.862511    5.675774
H   48.083031    2.024329   18.912905
H   43.811539   53.120308   46.228970
H   70.901886   75.539825   21.763290
H   85.763519   15.400555   26.560772
H   26.757175   57.903885   26.876865
H    5.985786   90.454918   96.656914
H   66.416344   27.973412   18.319136
H    9.350144   95.471504    8.537090
H   56.715816   84.503387    4.037970
H   17.996414   15.726379   99.261292
H    7.431318   62.452854   78.445488
H   42.907368   34.156044   44.654449
H   25.713598   60.712833    5.954772
H   88.376778   72.187561    0.261200
H   76.283203   66.010818   13.693545
H   51.750740   16.999800   73.950012
H    4.374306    3.430555   98.024200
H   44.877289   39.839088   79.054817
H   81.661316   59.623787   90.647118
H   72.799400    4.430387   47.118591
H   87.944252   92.962814   17.470238
H    5.601173   76.119263   39.661785
H   91.770531   47.391861    3.787764
H   61.581974   16.749422   40.039703
H   37.294399   88.905029   92.182144
H   75.816360   69.664276    1.477838
H   69.720039   12.057334   57.876377
H   93.241470   47.552456   84.876816
H   82.574692   12.468678   79.913849
H   88.215942   27.965080   17.468277
H    5.783144   83.312149   83.488617
H   47.225513    6.581459   58.343575
H   60.630440   64.253319   90.380783
H   42.734543   90.248955   39.861889
H   39.699734    1.708781   88.962746
H   79.343292   41.057774   57.453724
H   30.243097   62.214500   13.625352
H   52.750809   76.775146   44.222961
H   38.556828   84.861473   92.374817
H   76.503212   28.099194   14.234869
H   75.125206   37.595512   75.371422
H   80.231728   18.811960   97.220703
H   90.685532    0.593550   63.009285
H   65.260338   51.843662   54.107021
H   45.530266   52.700905   73.007500
H   30.952988    7.561766    8.845367
H   52.121838   26.928917   42.743317
H   45.135944   74.135857   36.199379
H   95.209160   12.572138    5.849329
H   35.281010   12.331690   57.412239
H    1.208434   53.228729   33.576958
H   78.180016   40.721111   16.218773
H   18.607264   46.342651   98.422966
H   40.191502   87.179131   88.231689
H   83.640854   38.201038   10.324472
H    6.967381   74.557541   14.946356
H    8.706557   53.994690   20.458809
H   75.688622   64.314049   39.489464
H   21.573092   14.660604    5.150957
H   96.456596   74.172264   20.173931
H   76.743912   56.556034   64.073837
