200
TIME:    0.869, STEP:   869
H   28.798883   60.387478   26.095087
H   33.570251   42.060841   15.432518
H    4.954377   96.669380   76.329826
H   39.044800   84.325661   28.051502
H    8.531889   99.671158   44.614994
H   69.156128   35.742947   46.931942
H   12.472312   54.857834   61.826145
H   16.984165   16.046703    2.745793
H   12.972260   78.076408   32.374969
H   88.719208   66.087234   71.262199
H   34.117508    8.030681   12.838661
H   33.378799   58.811756   42.713032
H   26.612202    7.883842   35.512047
H   74.674210   55.860722   72.575584
H   89.253983   76.786667   41.430950
H   10.966397    0.049983   40.754147
H   13.798541   37.177231   84.894775
H   21.626471   13.405632   32.322159
H   85.953377    6.930212   51.743290
H   92.057388   71.066673   13.087494
H   65.633728    8.157148   97.023460
H   76.025871   72.856804   46.335503
H   76.169571   57.968117   34.043701
H   21.931147   93.793854   89.613739
H   30.585960   38.001392   22.965946
H   18.140413   90.251274   86.182159
H   11.076815   71.417839   74.372009
H    8.946116   96.077026    2.386340
H   37.560860   37.410957   34.655216
H   64.625603   37.614845   76.867737
H   12.540282   77.727974   16.963835
H   20.487900   78.248520    9.089610
H   11.925217   22.519917   80.862175
H   75.608971   64.264160   49.284554
H   17.802860   63.810246   29.433952
H   12.512444   35.580750   86.686852
H    4.317717   60.852943   90.677040
H    1.802258   61.025948   86.886925
H   29.790840   23.877462   58.413197
H   84.050545   37.101887   39.126068
H   80.691467   75.840385   22.402172
H   44.647263   29.916950   21.179560
H   65.376480   73.332474   73.684479
H   35.879990   93.783623   41.243835
H   50.268650   95.485909   67.062660
H   32.208241   97.468948   49.528694
H   91.827408   95.395523    9.969447
H   74.802567   65.541008   25.035294
H   11.406035    4.882768   61.619827
H   39.608208   20.640047   79.102257
H   63.245300   62.534760    2.941156
H   97.093971   46.524273   77.064995
H   69.142662   76.434654   16.147020
H   13.044971   95.457428   91.017807
H   50.574661   62.396172   70.430862
H   97.242729   56.853336   99.245056
H    3.635430   19.125710   42.907352
H   74.280685   73.201607   93.949959
H   14.908634   86.628250   22.339314
H   28.555458   92.457191   55.366524
H   48.382389    3.104457   23.858625
H    1.241479   17.914938   53.888412
H   88.776100   38.236076   63.664192
H   39.366692   66.049728   17.711361
H   81.459633   85.456100   43.650990
H   14.065386   40.997826   44.169479
H   62.679787    9.893982   98.830513
H   93.819038   92.879997   99.724670
H   38.895737   14.353280   54.018448
H   41.616203   52.593048   50.949001
H   58.189228   87.471214   90.106247
H   14.462591    7.288763   40.361847
H   97.457169   36.537380   78.433434
H   28.357582   95.138931   78.884743
H   86.804062   11.053624   38.037163
H   69.212479   96.870407   58.767223
H   92.768997   53.366375   63.248230
H    3.258106   17.423687   26.458916
H   16.315907   57.712639   20.996384
H   58.796967   87.158958   64.431732
H   70.064316   19.471310   91.795242
H   54.294624   57.277840   68.412132
H    8.545681   20.565903   71.875977
H    4.162471   82.427635   14.351871
H   16.509403    5.975297   39.956722
H   42.387608   63.766617   14.689113
H   64.046288    4.094806    3.213378
H   70.100700   95.134018   35.166538
H   84.938522   73.588142   79.435974
H   20.293659   14.241536   47.945507
H   14.876079   40.322739   77.956734
H   79.674042   94.054184   12.092503
H   77.141029    9.768141   77.815575
H   31.822388   71.835678   86.375870
H   41.062531   48.417770   94.136917
H   43.223701   41.772442   99.487534
H   87.838020   92.522499   25.418671
H   95.298416   39.191830   55.726955
H   22.765205   63.477089   55.110332
H   78.141098    8.147807   27.403971
H   37.930019   97.817566   98.558540
H   13.961023   86.172768   62.395004
H   36.217979   14.182390   39.292213
H   52.099709   69.100815   15.141332
H   24.504932   19.206646   45.480415
H   12.325222   95.977364   14.441702
H   89.759918   36.927258   52.153938
H   61.044540   58.424786   94.419594
H   88.781662   32.149891   29.547947
H   24.572454   19.290419    8.615751
H   55.470226   90.600845    1.238398
H   11.249734   79.162537   97.675903
H   46.169369   87.573769   80.253738
H   61.093468    5.836934   58.734516
H   42.859917    8.160696    4.717857
H   88.368927   87.397636    7.310433
H    6.713511   17.299747   91.512802
H   37.579853   57.956512   21.405418
H   42.749470   81.328941   52.453346
H   87.381989   59.228756   72.807831
H   47.119453   25.939266   66.908600
H   91.149849   12.579479   66.689934
H   47.400887   95.293961   42.689117
H   94.810341   44.684513   90.320091
H   58.095131   93.378891   72.009949
H   70.766121   79.562065   13.386770
H   79.751854   52.126846   46.762787
H   61.670258   92.503227   40.314945
H    0.208335   29.715340   70.555984
H   98.232536   21.168036   77.217529
H   73.999878   62.726898   27.448978
H   57.556793   92.289932   24.160351
H   90.383827   13.196732    2.054752
H   70.078102   29.129807   57.448292
H   35.499081   89.996780   27.513176
H   45.605156    0.819587   74.414948
H   69.934074   88.167351   86.651413
H   96.583504   44.581497   73.259872
H   62.754227   53.129997   71.401321
H   43.788666   78.923561   77.979935
H   81.757652   44.571346   35.228409
H   28.281954   60.122402   60.909897
H   34.785381   68.337410   78.168358
H   28.890953    3.758897   88.547615
H   69.867897   48.906303   69.636581
H   68.987320   72.812073   99.721046
H   59.607811   94.023232   42.778137
H   25.477219   50.004913   65.216209
H   82.000580   38.530430   91.691505
H   29.512743   95.542007   66.458382
H   54.050434   71.992279   46.595695
H   60.265240   89.704712   28.440891
H    5.396262    8.319233   81.384560
H   26.537062   15.580661   60.408363
H   38.554764   70.491333   72.132065
H   82.174576   45.088543   73.413643
H   65.895340   79.747627   88.203659
H   54.988796   26.567833   24.460321
H   83.593445   99.364136   79.277710
H   56.627708   31.279324    2.379300
H   60.134518   58.855301   66.691757
H   14.071014   19.796656   30.094837
H   92.294685    7.145615   36.970512
H   34.363091   38.657784   44.288380
H   52.931580   43.431423   16.004913
H   22.750788   44.425529   58.863419
H   64.068741   87.393318   58.889755
H   24.181686   59.550739   74.022690
H    2.620327   26.124683   35.371677
H   55.177509    5.713013   83.320190
H   67.348572   13.114087   35.923286
H   24.433151   42.083866   59.389668
H   49.826130   50.425690   72.725723
H   63.480366   59.493855   88.832695
H   42.203033   90.304840   69.655869
H   20.324059   51.062611   23.901096
H   28.956039   72.571251   13.219090
H    7.304750    9.800720   72.923141
H   59.515022    6.756969   61.778870
H   56.380070   61.202339   95.258148
H   69.934074    7.730285   27.095087
H   31.914730   30.873867   92.578850
H   36.672913   89.502907   18.528831
H   65.178856   26.384216    0.330521
H   93.657082   61.052696   75.805435
H   12.428195   41.531342   87.102272
H   53.254120   93.750732   13.202301
H   60.202446   93.867989   47.536297
H   88.402229   63.978355   73.732147
H   61.051723   54.851704   73.649979
H   77.867409   10.213963   74.809700
H   42.496510    2.022929   16.612642
H   18.072010   32.488201   72.216248
H   24.114971   88.634117   45.989548
H   63.309124   26.160490   19.758760
H   76.863785   11.926888   20.948767
H   13.642312    2.710902   24.697065
H   10.629146   84.905075   29.227619
H    3.525460   13.371887   49.885979
H    1.447296   13.682307   89.010017
