100
TIME:    6.330, STEP:  6330
H   89.250565   41.528862   93.350723
H   25.655731   47.878201   77.232948
H   88.572418   29.309048   49.039570
H   82.539078   71.854156   93.193604
H   38.473816   80.134842   94.073730
H   29.858700   94.350334    5.627025
H   21.215351   88.769295   85.467323
H   22.360779   36.227184   26.994106
H   98.024391   77.689651    1.635195
H    1.864787    7.273304   55.562840
H   11.453842   20.943594   30.012188
H   14.241386   40.980686   42.352348
H   40.136398   78.802635   96.040947
H   41.656715   85.565041   38.956234
H   57.490181    4.606018   46.492321
H   47.008698   58.084084    7.595472
H   15.086289    0.652084   49.633217
H   36.431217   86.821381   80.094276
H   43.857494   43.905510   96.852142
H   21.976677   71.385780   47.308434
H   88.645554   26.045734   85.435722
H   69.243607   52.487152   80.220322
H    1.227696   43.140739   51.242111
H   30.909367   12.553438   36.952465
H    3.187857   84.159195   83.288368
H   17.690611   39.529175   95.172768
H   16.235546   79.347244   25.563887
H   98.435287   51.902702   76.010300
H   48.810814   23.399025   57.949432
H   43.712910   34.172478   86.605728
H   65.182961   89.679008    8.569481
H   65.437317   77.619324   13.264214
H   16.233479    5.349813   68.053345
H   45.559761   93.616074    5.079087
H   23.420074   80.400246   10.172494
H   22.893614   81.221321   99.524727
H   86.928291   72.716919    7.244573
H    2.363251   43.112179   69.131020
H   77.881775   43.495842   30.887899
H   66.977295   19.589653   36.065510
H    2.641473   73.379189   91.477760
H   66.756042   66.426239    3.118130
H   65.763275    1.459601   58.695648
H   75.151047   18.891623   99.650108
H    7.575520   82.142136   97.785019
H   96.416710   83.651901    8.877531
H   91.187790   69.084854   86.226799
H   56.577473   60.566925   60.242451
H   50.060410    8.200027   91.967361
H   58.640377   27.078848   40.938362
H   43.066944   58.522949   20.154892
H   12.759935   76.363174   58.511086
H   40.175938   58.712219   35.232021
H   30.103722    3.920472   11.142077
H   36.791344   13.335570   54.189198
H    1.479767    5.875177   77.138657
H   97.547234    6.897035   58.023140
H   54.710602   79.096992   50.509628
H   89.510742    6.227214   25.528618
H   41.303665   14.332410   83.570335
H   59.002003   84.197159   20.859745
H   74.253853   69.023331    8.940446
H    3.803640   75.335121   99.403351
H   77.710068   76.245300   55.282703
H   83.571777   55.278385   85.054100
H   12.485031   27.589897   20.462843
H   79.700546   67.204498   72.674454
H   43.109444   79.556496   68.813202
H   72.389626   94.952911   63.227627
H   58.627228   66.524345   88.403961
H   21.026535   64.707932   86.216255
H   52.029079   41.444702   20.074390
H   94.262894    5.199905   99.444397
H   90.862144   48.792934   27.045996
H   67.364128   37.665691   81.254776
H   75.304634   13.265972   69.999695
H   41.682217   77.923485    3.005021
H   29.375240   36.817009   64.023689
H   65.057610   34.925518   88.305229
H   89.096237   64.194618   75.586052
H   34.740791   94.768417   58.318180
H   16.295473   85.521835   57.435879
H   18.261139   12.978286   32.780685
H   85.643303   53.831078   85.269402
H   44.111107   52.940979   34.129791
H    5.603238   41.565804   81.357544
H   89.921104   43.110222   25.382299
H   57.832817   98.540405   29.945557
H   87.047958   41.727531   76.419563
H    6.681216   48.843792   50.498123
H   83.072319   15.234047   67.139816
H   46.654797   71.555893   54.135597
H   91.218781   17.450130    8.513194
H   59.036472   97.206978   53.621155
H   47.150642   82.726852   61.542698
H   16.753677   45.766388   40.496323
H   60.156639   30.945292   73.145172
H   26.058962   99.667984   51.805565
H    7.166536   64.136681   14.832840
H   32.391720   16.197239   87.951408
