100
TIME:    8.899, STEP:  8899
H   15.519219    5.940953   90.998734
H   54.707382   87.087646   39.215435
H   32.736538   14.133704   18.879566
H   82.970276   66.011650   52.379066
H   15.456472   86.051346   24.416702
H   90.018921   91.567146   60.044525
H   86.573341   62.242424   86.366554
H   20.442444   58.477551   91.116844
H   34.873466   30.690147   39.926922
H   31.696802   44.161457   56.152565
H   72.491730   24.312145   82.552437
H   16.190239   69.751518   59.488396
H   76.289917   23.343292   40.749191
H   14.456439   77.646675   34.458118
H   88.693245   75.130287   22.948196
H   43.714249   33.389977   94.345764
H    8.502362   70.569435   83.499428
H   91.363205   61.813606   91.043533
H   83.870651   51.678715   32.195446
H   52.759182   16.833841   22.217859
H   36.197441   70.294403   15.710512
H   15.536141   55.897537   61.446228
H   66.927727   22.251806   77.739227
H   92.212387   43.286102   46.157345
H   11.305615   80.425354    2.260000
H    5.646906   63.760971   53.447094
H   94.708046   72.557510   76.538437
H   81.669647   71.814941   60.928421
H    4.670856   56.478786   36.510796
H   42.219643   70.589127   90.833923
H   66.289360   20.046570    5.318520
H   27.645466    6.643676   75.439079
H   97.189835   17.389183   99.489151
H   54.106262   58.182434   96.851494
H   59.484215   85.890846   66.476395
H   46.212101   82.439987   91.449562
H   33.329163   78.634041    9.671683
H   96.180794   96.095177   50.418083
H   69.444054   87.524071   81.933380
H   25.007452   79.089104   38.189346
H   27.067507   61.526108   52.001064
H   50.254684   76.500595   34.270885
H   87.871979   16.870491   44.256504
H   11.113827   62.017998   50.830685
H   84.733292   80.791145   17.622931
H   63.254097   32.645611   19.314486
H   11.265609    8.795820   10.889948
H   56.730770   87.026810   19.196827
H   25.157326   95.435707   89.489105
H   12.573959   66.183006   61.315830
H   42.890545   10.502316   47.237686
H   37.620907   37.977734   89.871925
H   93.457268   73.608154   86.032822
H   70.608307   62.013535   24.504074
H   32.243752   38.470665   76.032303
H    4.679453    3.172839   89.683823
H   60.408485   32.769768    2.356323
H   63.417908   36.486809   84.336693
H   92.123207   14.783040   28.309000
H   71.775658   11.794240   10.501854
H   21.056353   64.724609   20.560413
H   83.075005   45.111435   92.702950
H   78.214401    0.030788   23.239319
H   54.119083   90.239639   85.531525
H   85.539948   50.096142   24.294016
H   54.669228   99.878075   72.362694
H   73.584946   56.021809   96.705124
H   65.650940   26.481148   91.626266
H    0.425619   10.360939    2.101979
H   10.759063   95.618973   82.968979
H   39.444027   89.911430   55.405190
H   40.456146   56.118553    8.339509
H   26.760345   78.129051   33.579502
H   34.307087   86.202003   74.405403
H   91.145432   41.418530   76.029846
H   36.035751   77.916008   97.140060
H   75.001785   55.570179   48.568855
H   50.065502   68.842415    5.907121
H   88.253014   27.379551   16.969210
H   63.109978   24.248869   54.264397
H   85.028099   21.346598   11.864377
H    9.070412    2.184007   42.513489
H   80.756020   55.940952   77.439186
H   62.384857   73.665871   50.630535
H   19.023743   92.235031   85.095474
H   46.482456   35.928596   59.756790
H   61.498936   56.322365   47.881889
H   99.149437   92.967628    3.309115
H   40.365238   98.690712   55.408455
H   79.548050   43.148125   42.334167
H   88.206413   53.949451   21.392723
H   36.734783   64.769241    3.091079
H   55.896534   94.528831    7.177913
H    7.319543   53.064930   26.843702
H    2.731069   52.612141   20.575544
H   28.942535   44.319702    7.804010
H   56.241447   78.374184   25.398983
H   21.100183   26.783310    0.232153
H   84.785301   75.230232   99.652016
H   91.962952   50.269909   40.471432
