100
TIME:    1.328, STEP:  1328
H   27.514818    0.237042   97.930191
H   64.329506   76.748009   61.770077
H    2.582144   69.445747    7.746950
H   81.699509   77.936119   67.372551
H   83.276276   79.202583   29.696800
H    7.423342   99.769371   10.261625
H   83.369576   51.011417   94.304100
H   15.508118    3.491558   86.261436
H   20.983223   58.611618   16.493845
H   38.548378   35.451469   59.695168
H   76.727707   19.677204   11.830141
H    5.152569   90.256630   98.401070
H   58.787094   81.361443   93.136742
H   89.327110    0.982817   58.302525
H   96.653297   51.403027   86.936691
H   48.128601   95.579277   22.805161
H   17.297993   69.819748   94.266975
H   29.523056   30.120178   53.507126
H   65.944328   34.064850   33.326527
H   56.737701   77.612167    6.749020
H   85.471237   24.010635   21.200432
H   89.685051   45.852745    6.177763
H   68.013313   83.821678   94.353683
H   95.655907   52.609013    8.444881
H   82.087395   80.852242   46.360580
H   40.569752   88.038864   64.698318
H   47.564217   87.273880   26.318930
H   20.488976   18.426250   10.668670
H   40.047134   69.578552   94.397728
H   51.914410   57.971970   88.961113
H   68.341499   41.133057    4.325990
H   49.607853   15.822520   76.324471
H   63.901554   71.319542   17.433683
H   34.212975   52.019417   15.804947
H   47.762306   58.533546    5.595504
H   88.018951   88.805008   16.074873
H    7.171850   55.902199   13.106399
H    9.103579   34.647976   16.155331
H   91.018173   52.159111   14.843934
H   38.110748   87.860298   42.518559
H   44.486572    1.750171   73.631638
H   12.268120   71.460548   65.191788
H   22.679678   71.463562   97.396584
H   94.558052   35.027184   10.579185
H   41.461266   79.493912   69.750687
H   60.954464   88.246346   88.563942
H   50.102528   97.377853   38.970894
H   56.310337    9.056414   50.747036
H    3.851122   22.464569   91.499313
H   53.742199   50.962406   90.783165
H   43.443302   41.434013   67.419083
H   69.671288   40.510578   86.880966
H   36.427277   29.708923   25.741089
H   45.937954   85.538002   90.418167
H   35.038010   74.925095   11.675127
H   95.227859   11.136282   47.418549
H   80.440765   51.228188   82.291237
H   27.172298   51.474632   79.348953
H   95.014107   94.879211    9.531670
H   71.383423   29.862394   25.838097
H   43.472301   16.814369   10.855083
H   51.777832   15.584433   35.267159
H   64.311630   16.593750   42.452248
H   34.230392   49.018478   91.084358
H   85.033073   54.779690   19.234896
H   19.763985   76.254280   24.707075
H   81.020432   94.275787   31.178963
H   88.631615   93.486313   29.688681
H   23.089066   54.364716   76.943245
H   57.287010   14.937244   98.936737
H   79.861946    5.043356   46.220158
H   64.466324    7.451542   53.852356
H   20.403786   52.616756   27.696644
H    0.961866   65.342590   24.281609
H   26.200493   30.533285    2.068861
H   57.056194   92.684837    6.572654
H   87.528831   11.444521   14.532513
H   94.372177   63.887566   87.780289
H   25.206942   49.612156   32.496300
H   34.397995   36.628250    6.512828
H   36.869900   43.020428   59.359951
H   40.964260   52.900406   75.730789
H    1.824475   29.421732   56.385288
H   41.524860   25.800272   42.131874
H   87.666473   65.818359   19.017616
H   20.726330   57.836224   34.003731
H   55.848839    6.796516   86.867188
H   77.333344   98.971893   81.938240
H   83.241890   20.231268   17.334709
H   48.925491   54.639359   71.688850
H   78.369759   45.139400   61.506664
H   76.545509   95.384758   58.824394
H   70.491081   67.420517   21.652704
H   75.584480   93.785484   16.359283
H   33.632908   30.775490   46.602043
H    3.608943   43.289299   98.855804
H   57.191849   43.891552   60.814636
H   11.741111   27.544800   34.788605
H   45.449089   42.574780   33.810680
H   21.714706   44.592800   69.780464
