100
TIME:    9.143, STEP:  9143
H   99.018707   83.565041   90.775345
H   47.968491    0.308566   54.601330
H   36.930660   31.687401   16.015537
H   83.011230   55.959160   39.003670
H   13.270056    5.608969   17.801605
H   86.236206   91.302803   84.208038
H   73.784340   78.717537    5.447689
H    1.264526   79.587296   68.714684
H   28.875481    7.229849   24.567541
H   25.031443   47.664936   65.706154
H   49.795441   34.129349   59.048225
H    6.876793   81.982048   42.119926
H   60.730896    8.575205   16.501617
H    2.375300   76.894600   53.027302
H   91.656868   53.334999   11.214706
H   33.903763   12.048825   74.091858
H   88.881264   86.709267    5.711713
H   96.583054   49.940498   82.584549
H   87.671982   61.915501   45.049603
H   46.185970   11.652155   38.830528
H   21.718132   46.003227    9.087729
H   38.928661   56.221451   40.667358
H   63.669975   20.268301   70.758331
H   69.542160   46.205048   28.035143
H    2.579049   61.075890    4.061183
H    4.495989   56.567856   30.484663
H   73.668556   62.415371   81.378525
H   61.080925   83.204041   68.993462
H    9.976657   78.616600   24.977062
H   51.575905   64.550186   10.231094
H   75.891350   41.926136   86.014038
H   43.051838   99.902664   52.850761
H   14.377035   99.537521   21.470602
H   64.415649   35.821228   86.571892
H   53.411766   67.416603   81.320572
H   67.422852    1.550969   90.682594
H   56.730988   69.698494   28.897848
H   86.094795   91.631126   67.636162
H   59.144955   82.207420   58.287689
H    2.025422   56.246979   57.387741
H   10.392473   69.898911   57.749599
H   29.691757   77.457443   46.726665
H   89.971832   18.334618   61.880009
H   95.534950   66.114357   74.687569
H   63.567253   71.166817   38.503544
H   60.106178   37.299541   20.305773
H   13.173255   22.066038   13.233202
H   56.745663   89.539932   34.294178
H   32.289009   75.226479   79.756805
H   17.695456   69.898705   44.254520
H   42.873791   86.945564   49.810379
H   49.479122   15.336117   73.854958
H   98.517021   75.022949   71.862534
H   64.956573   58.031631   35.270760
H   12.815464   59.854546   78.106094
H    4.983355    2.916175   81.377487
H   75.877716   25.729301   25.562948
H   45.248962   13.443518   78.052025
H   11.367664   25.093359    9.576929
H   55.674023   30.549580    3.561913
H   36.449032   53.378208    1.536975
H   74.414970   42.840317   81.663826
H   94.778671   83.380882    6.507507
H   70.874329   91.568802   78.908051
H   95.223846   30.607342   47.016682
H   39.679848   87.748070   86.789879
H   54.008652   64.456696    8.485703
H   48.796265   40.435860    3.290878
H   12.586924   92.828674   86.799652
H   15.714568    7.874662   82.451462
H   31.694340   73.309929   52.478798
H   20.363657   48.016991   26.224365
H   10.851198   66.058617   27.322758
H   28.936451   70.758400   59.907478
H    2.899178   41.777813   94.530151
H   41.804764   93.553215   80.720993
H   97.161942   34.450642   52.897011
H   61.527203   52.888741   19.383080
H   99.954857   26.662846   19.692690
H   51.143791   10.956490   33.243523
H   89.804893   23.870890   26.448067
H   27.379730    3.767972   22.100897
H   96.188454   60.021519    0.675378
H   79.172340   94.545265   28.345654
H    7.143188   76.970139   61.442337
H   40.866093   44.892067   76.700821
H   77.795143   38.581581   59.516716
H    3.073386   73.443459    0.779327
H   45.428715   85.104958   53.412849
H   57.975628   33.108665   51.055634
H   98.191887   67.124237   26.545555
H   54.788311   83.120621    7.739635
H   71.537460    1.848984   26.046808
H   30.901003   67.868149   43.295986
H   98.512268   30.755421   26.181669
H   49.095917   34.684204   95.200882
H   36.873650   92.376930   11.365675
H   20.629206   38.856007   95.332542
H   73.161644   76.283882   79.215675
H    7.119219   44.009441   16.965359
