100
TIME:    6.467, STEP:  6467
H   79.985672   28.965361   93.225296
H   21.872532   55.302448   85.870705
H   90.928360   39.165398   47.430965
H   82.562073   66.209930   85.684692
H   37.246719   91.115997   90.358994
H   27.733753   94.201912   19.194595
H   14.035235   98.019554   96.180901
H   11.592850   48.079014   14.414832
H   94.656670   64.517700   93.011925
H   98.122627    9.240635   60.926945
H   98.710449   26.456121   16.815674
H    9.012115   47.847828   32.600380
H   31.394119   70.518166   82.427910
H   34.873192   85.142769   49.382374
H   59.154182   92.368523   39.904255
H   41.500351   46.101601   96.223145
H    4.069382    9.713399   62.104866
H   39.360989   80.154922   75.344765
H   45.990803   49.653214    4.069931
H   18.285980   68.475868   56.636040
H   80.515778   12.406567   81.716805
H   82.377930   52.669022   68.553497
H   99.398430   42.026527   47.322510
H   18.180069   14.192354   26.777449
H   98.288033   73.295105   84.300148
H   17.066088   35.478920   82.289299
H    4.421867   73.652847   28.282522
H   86.875076   58.297401   80.538223
H   51.789711   35.828503   51.473206
H   48.966221   30.781761   97.496994
H   70.574242    1.964497   97.730553
H   74.087616   73.833511    0.581502
H   25.883537   95.326302   80.395386
H   51.348228   81.060806   99.307724
H   20.010544   70.027412   18.507998
H   34.802532   91.951622   99.094093
H    0.068886   67.699829   18.039465
H   96.700523   40.604679   78.799370
H   72.099579   40.510674   17.611948
H   54.073727    6.764006   46.844936
H   93.278442   78.080620   94.705421
H   55.210464   66.963486   10.112184
H   66.942291    2.281455   68.591301
H   66.402496   21.191122   13.045035
H   95.691628   76.736221    9.508708
H   94.648186   86.264969    9.434114
H   92.258102   76.535233   87.541695
H   56.584789   61.977982   68.719238
H   54.064674   96.853737   86.502914
H   61.515797   29.164598   31.358892
H   43.057537   45.296646   21.598873
H   19.419472   63.651093   49.517952
H   43.017910   59.506592   27.275019
H   26.931458    1.684993   17.187149
H   25.883060   25.341629   55.354626
H    1.650400    5.731067   72.474854
H    6.232503    2.943742   71.052940
H   44.509186   66.159172   46.980942
H    0.316276   12.016465   15.011518
H   32.263496   24.863071   79.673729
H   67.643944   77.825455   10.178427
H   69.391457   67.748154    2.741368
H   13.104650   65.986610   90.008850
H   87.117111   76.991592   51.562740
H   89.009048   44.335903   97.812141
H    4.069386   20.779198   28.563353
H   68.708939   71.941467   79.288651
H   33.645958   87.391518   75.362595
H   79.217049   85.108963   54.634815
H   61.402306   73.414482   88.115479
H   16.675777   55.386597   84.573158
H   40.733311   36.897964   30.104912
H   85.330383   98.423462   95.932434
H   87.845619   40.122776   18.906290
H   73.969963   37.861149   91.640152
H   78.542747   22.046402   60.781158
H   54.124599   66.066429    5.434782
H   35.811749   27.858610   71.589043
H   71.627907   34.523106   89.833351
H   82.377518   56.731697   63.783348
H   37.421799   96.185745   66.506485
H   26.575804   86.410278   45.974964
H   26.927116   15.269162   45.828255
H   95.069160   65.554344   72.755943
H   37.440468   44.371162   20.849136
H    2.449918   46.598572   90.871201
H   99.071022   33.149208   31.914968
H   60.036156   87.578064   28.525093
H   89.890976   34.099464   75.299080
H   94.568710   43.206882   55.395012
H   88.678917   22.631641   70.033005
H   56.791409   81.859741   56.745529
H    0.000778   21.561008   19.107615
H   72.277016    5.518481   62.858871
H   44.782158   70.455887   64.690918
H   28.069305   40.356293   33.420135
H   49.282097   38.807419   65.266251
H   25.794519    6.446736   49.055573
H    0.640269   64.728279    3.357296
H   40.900913   12.681618   74.754372
