200
TIME:    0.806, STEP:   806
H   26.863058   60.596561   25.017826
H   33.008850   41.141113   12.874909
H    6.274818   93.911880   73.226738
H   36.921280   83.589302   29.698936
H    9.200776   98.074432   45.520782
H   71.205627   37.452866   48.796631
H   11.559554   54.902534   60.606731
H   15.572370   13.326453    4.981987
H   10.413870   79.020889   33.911854
H   90.936935   66.970192   73.747169
H   31.921648    6.684916   10.847801
H   33.118286   57.130196   39.711121
H   25.065945    5.792796   38.094109
H   77.651848   55.594921   69.539787
H   92.295547   76.301689   41.585960
H   12.802668    2.645733   42.113190
H   10.832803   34.226986   87.951393
H   23.122379   10.376864   33.443760
H   83.857254    9.210979   50.815872
H   91.856956   71.931847   15.529746
H   64.877663    5.012335   99.909775
H   77.428413   70.448738   48.763275
H   78.056129   58.426178   35.555351
H   20.596737   93.219475   89.811287
H   27.847687   35.467636   25.213955
H   18.192564   87.455322   88.262901
H    9.856740   70.153725   71.838974
H    7.500195   93.478142    2.220575
H   34.907421   39.325874   35.024117
H   67.472504   35.927036   79.047012
H   12.622534   75.095924   16.886810
H   21.633533   76.771957    7.538478
H   13.447441   21.164358   80.092651
H   77.694038   64.195427   48.183380
H   20.826281   66.413437   29.913282
H   14.572681   37.016899   85.966789
H    2.509577   62.212708   90.204079
H    4.918475   59.396297   89.719406
H   32.122482   26.133282   57.012817
H   84.654724   37.360958   41.587006
H   80.672722   78.783417   20.311096
H   41.511490   31.238142   23.047733
H   66.510818   74.779716   71.345146
H   36.020340   90.723793   38.990780
H   48.116051   93.563782   64.789177
H   33.094803   99.108452   48.843525
H   90.640198   98.482269    8.588294
H   76.336327   65.541969   27.300125
H    8.969611    7.273470   61.574406
H   41.862705   20.355742   81.767471
H   64.743973   63.332161    5.437872
H   99.502037   45.439922   75.710518
H   67.443077   78.236137   15.324477
H   13.982662   94.127945   90.084862
H   53.241318   63.797272   72.468346
H   98.050224   58.405602   97.182098
H    3.815209   18.887306   43.583149
H   73.592392   71.737061   95.087181
H   16.237997   85.411240   20.815647
H   30.012554   92.810951   56.531143
H   48.586426    4.333593   25.699402
H    0.109285   17.765696   53.405357
H   87.040466   36.931107   65.789673
H   37.840141   65.959846   16.304733
H   80.446899   84.516907   41.074696
H   16.536730   38.550346   43.037064
H   65.033058   11.222924   97.528908
H   94.171837   92.736763   98.477379
H   36.654938   13.501925   54.815849
H   41.978855   51.494999   50.952366
H   58.216866   86.381577   88.421082
H   16.233192    8.944682   40.802845
H   95.457657   35.448223   80.543015
H   26.305079   96.523689   77.050575
H   86.036942   10.033801   40.999420
H   67.620079   99.094383   59.178902
H   93.035278   51.021034   64.139565
H    5.591516   16.276491   28.613197
H   15.835615   54.907555   22.395922
H   59.746494   87.510315   67.419464
H   67.390450   20.536074   92.730591
H   51.524387   58.410976   70.359734
H    8.791474   19.874846   73.719276
H    6.216867   80.367561   12.298587
H   18.752846    5.309084   41.742104
H   40.612801   65.970886   16.000511
H   61.222702    3.963528    3.068942
H   70.624611   97.478638   32.790436
H   83.010147   73.434814   79.209106
H   20.609207   11.417526   48.638607
H   17.516926   39.778881   78.236954
H   80.112877   93.501434   10.717838
H   74.148010   10.478664   79.609848
H   34.647427   74.099068   84.646004
H   39.466286   49.269966   91.513039
H   45.832680   40.363892    2.449658
H   86.983421   94.701775   22.705391
H   92.639931   37.454273   54.216026
H   24.192741   64.108185   54.887070
H   77.045692    7.124174   27.388590
H   35.119167   96.075684   95.591957
H   11.618506   85.219635   62.742516
H   34.912048   16.484785   38.411900
H   49.072563   68.984497   12.639419
H   24.588446   20.034569   43.437885
H    9.830999   99.061707   17.391310
H   91.165825   36.903706   53.361576
H   61.415844   56.005905   96.855537
H   87.180611   32.945129   26.501575
H   22.548670   20.168810    8.307413
H   54.641342   91.148308    1.194073
H    8.720243   77.578308   96.958290
H   47.263573   86.842697   81.624077
H   61.306877    7.195106   60.358879
H   44.962288    5.537359    6.926873
H   90.939934   89.240456    4.468249
H    9.303803   16.412584   90.778366
H   37.899487   54.855587   22.664726
H   40.357025   78.963654   55.566769
H   85.719414   57.971371   70.457443
H   46.461922   25.520618   68.973000
H   93.867935   14.071903   64.837021
H   45.882027   97.951004   40.820103
H   95.738480   46.951508   93.079033
H   59.980247   94.938606   74.093575
H   68.458511   77.837967   14.602953
H   81.317818   51.832687   49.195847
H   63.048286   92.009117   39.782864
H   99.433037   31.995792   71.991692
H   95.178955   21.466640   76.144234
H   71.456749   64.976349   25.041393
H   59.974953   91.665085   22.674656
H   90.589546   10.131735    1.585960
H   73.167252   27.514576   56.673000
H   32.386860   91.135925   30.408142
H   47.283112    0.900442   75.343086
H   69.829773   88.006813   83.515160
H   96.046135   46.548565   74.255302
H   61.107513   52.248962   71.416222
H   43.754539   81.944939   79.730469
H   78.638702   46.424019   33.193329
H   31.182087   58.208206   59.441265
H   36.810608   67.178078   80.293320
H   31.777748    6.039408   87.503639
H   66.906601   50.995697   67.576508
H   66.678749   71.726761    2.738381
H   58.117790   94.299126   43.229229
H   27.197472   52.350014   65.577660
H   80.316376   41.160797   92.317795
H   27.504459   94.854195   68.815979
H   56.270805   70.922348   47.071301
H   57.613243   91.448036   30.415169
H    2.469535   10.674908   83.596039
H   24.871723   14.134560   61.965435
H   36.056576   68.827316   70.992439
H   80.304359   44.932331   71.475174
H   65.235886   77.858185   87.457687
H   54.093102   27.578644   22.984360
H   86.476875   99.601578   81.614159
H   57.334026   33.849884   99.961807
H   59.515678   61.414772   68.366829
H   17.029066   20.123138   30.640617
H   89.582848    9.892410   36.996708
H   32.050674   36.807034   46.983635
H   53.534798   41.293724   15.385895
H   21.665356   46.430088   59.207806
H   65.153572   88.412300   58.221889
H   24.126652   56.684372   71.417557
H    1.764105   26.329561   35.520439
H   52.302490    6.188437   84.029633
H   68.552124   12.364871   35.928574
H   26.609663   44.423920   59.196205
H   48.608879   53.132961   74.498367
H   64.256302   61.000458   87.371033
H   45.131165   90.778763   72.618126
H   18.380302   50.720627   23.836449
H   29.603237   70.602982   10.583916
H    6.746383    9.740639   72.117569
H   61.126408    8.221576   62.515469
H   59.376694   60.526543   94.369423
H   71.084274    5.472513   28.559753
H   30.644007   30.796963   90.278931
H   39.573887   89.569717   17.280579
H   63.807045   26.267658   98.012825
H   92.842377   63.785202   76.064987
H   11.109346   40.999741   86.786964
H   51.060425   94.829796   11.806368
H   63.229111   91.199409   45.331787
H   90.226784   63.697414   73.012131
H   59.906090   55.194408   72.854019
H   74.858047   12.298309   75.259590
H   43.012970    0.310773   17.415091
H   16.672592   30.989368   70.772850
H   25.215544   86.119827   44.719906
H   65.471176   28.974346   19.964840
H   76.709976   11.772299   21.811897
H   13.223544    0.992887   22.570662
H   12.460129   86.157173   31.004349
H    4.365571   13.195608   52.703560
H    2.104393   15.816702   89.885284
