100
TIME:    4.323, STEP:  4323
H   24.975159   25.580109   95.188187
H   81.084999   39.121178   50.685463
H   54.063141   84.918251   72.599449
H   82.202209   54.542961    3.203925
H   56.450333   19.265017   48.489838
H   60.988392   96.524666    6.866899
H   26.402321   53.248264   28.517237
H   80.107018   62.595280   11.269833
H   47.360344   70.654541   27.969137
H   56.704018   78.455238   76.974701
H   98.140106   40.187687   23.336582
H   90.842934   40.380165   85.213493
H   68.207565    0.169132   95.467041
H   41.030983   91.751167   86.222137
H   33.085808   83.879791   42.969997
H   27.706455   33.623772   74.194275
H   76.477150   67.902344   66.928093
H   93.515465   84.473061   49.669880
H   12.600552   59.710480   91.115280
H   76.047447   14.012396   10.662516
H    7.743759   25.848942   39.909775
H   76.830566   49.822830   51.134888
H   28.025749   59.463539    8.663423
H   17.387993   88.529266   86.009399
H   74.969025   43.324486   68.466164
H   26.839647   98.854935   83.902946
H   89.301765   62.777256   85.743507
H   67.778748   58.222733    9.665696
H    5.170108   41.308102   52.821358
H   66.756256   83.845238   27.054352
H   86.192619    9.707692   67.356941
H   38.713970   33.071785   99.062309
H   74.864357   52.190834   87.246933
H   60.758652   77.545624   89.630653
H   73.312958   32.134575   87.969177
H   48.428440   24.025059    5.837202
H   94.431168   46.218735   49.100758
H   85.314445   79.839531   27.503757
H   62.599567   87.227470   25.381220
H   56.014481    7.478089   78.159546
H   39.804871    4.518066   44.193707
H   43.094528    5.875700    5.899918
H   48.477367   89.423691   13.729023
H    3.306688   85.219055    3.415154
H   81.667061   61.325684   26.041746
H   22.315052   45.371418    0.721280
H   75.508102   59.937401   66.964058
H   56.470287   39.895462   36.060646
H   91.396896   74.418243   72.029419
H   16.543842   96.531914   81.307838
H   43.214802   52.285912   98.997833
H   15.222319   62.598164   90.264557
H   98.543816   47.074951   51.796955
H   76.580376   36.671844   22.578110
H   96.590851   37.445675   37.116100
H   98.975266    7.986346   45.461685
H   70.310120   64.808357   67.140709
H    4.156302   68.633614    2.203805
H   31.222448   21.426308   79.604576
H   73.744583   60.069355   40.654182
H   32.399323   77.531761   77.340279
H   45.482903   87.704208   99.750748
H   67.550072   12.289094   37.029381
H   39.892197   65.312393    9.768688
H    3.908789   15.572796   98.150826
H   35.776283   27.363564    1.793247
H   40.726486   97.820892   75.776474
H   81.746498   64.774246   72.866997
H   72.361069   39.163116   89.101288
H   17.970709   65.578613   92.630127
H   84.757210    1.262565   10.289776
H   17.516312    8.052995   73.132469
H   25.124079    4.474415   50.908447
H   35.044079   75.812325   46.295708
H   70.599129   34.802311   29.111147
H   27.855791   84.636803    5.047052
H   59.456177   51.858105   67.503349
H   35.082729   68.051384   53.184135
H   68.814812   40.820713   65.918800
H   87.517029   73.515022   48.490868
H   95.467972   74.005081   38.364010
H   65.686089   72.460037   25.291197
H   91.312294   79.417023   41.644451
H   47.565071   82.087349   68.576828
H   41.835541   78.479057   28.685944
H   51.800030   67.847588   41.985535
H   55.878120   89.035599   29.680952
H   25.540869   59.184380   50.785614
H   45.398788   53.474251   92.834236
H   84.127457   31.415787   78.753189
H    0.937547    6.861833   24.755655
H   98.154648   20.612602   15.899542
H   62.566185   57.229774   53.308758
H   65.063126   75.455536   18.296713
H   81.848076   62.502640   15.425069
H   50.983673   25.020519   44.160469
H   19.463005   15.768498   88.569031
H   22.734190   53.045441   86.860069
H    2.775488   55.485050   82.940407
H    7.730000   67.695595   81.292114
