100
TIME:    9.830, STEP:  9830
H   52.558990   20.563961   90.146378
H   28.995060   37.537769   97.917351
H   48.739521   81.113731    7.950344
H   83.126541   27.655230    1.345970
H    7.114038   60.674835   99.175087
H   75.585693   90.558525   52.244141
H   37.779781   25.106676   59.171978
H   47.267685   39.021549    5.635111
H   11.987709   41.177597   81.324455
H    6.264631   57.529240   92.604988
H   85.892303   61.772461   92.871574
H   80.657967   16.417339   93.219337
H   16.923325   66.990807   48.229134
H   68.358749   74.777077    5.306576
H    0.001167   91.968781   78.174583
H    6.279216   51.961227   17.064804
H   33.636971   32.148819   68.252029
H   11.275970   16.510887   58.768806
H   98.374908   90.733063   81.251968
H   27.678608   97.062225   85.604729
H   80.950089   77.610909   90.439270
H    4.792023   57.133453   82.162994
H   54.497536   14.683287   51.103104
H    5.708755   54.423553   77.013657
H   78.007553    6.591599    9.132233
H    1.255219   36.315109   65.836006
H   14.426712   33.855015   95.006149
H    3.115334   15.270879   91.699181
H   24.915157   40.946232   92.503250
H   77.919151   47.547104   64.845375
H    2.926881    3.531401   31.660782
H   86.429611   80.918335   89.251762
H   62.770782   49.272552   83.360985
H   93.442490   72.861870   57.628914
H   36.314339   15.401009   23.117933
H   27.142107   55.362896   88.523140
H   22.624237   44.539803   83.030960
H   57.698086   79.062263   16.117424
H   30.144321   67.237999   91.712746
H   37.317425   91.930817   11.438191
H   63.440536   93.474701   73.935020
H   71.794823   80.155411   81.791252
H   95.884125   22.456974   11.504393
H   51.673489   77.645424   41.858028
H    3.956901   44.033298   97.282196
H   51.242981   50.403027   23.096815
H   18.544994   59.431240   19.830046
H   56.787594   96.615814   76.801880
H   52.368790   18.330112   52.352570
H   32.114532   80.360527   96.218971
H   46.017048   20.860153   52.150925
H   82.866806   51.588562   28.757814
H   12.766581   79.006409   31.960941
H   49.048630   46.820290   65.586983
H   58.115761   20.058771   83.945007
H    5.839012    2.193518   57.990387
H   19.431816    5.905751   90.902168
H   94.094193   48.565071   60.357079
H   65.552193   54.124817   56.836834
H   10.341042   83.354706   84.022011
H   79.788208   21.431044   47.978710
H   50.032005   36.445816   50.580093
H   41.439083   36.533501   59.412674
H   18.048206   95.311157   60.258118
H   22.491776   75.737587   10.993443
H   97.477753   53.595146   27.411173
H   98.888649   88.210693   41.655102
H    1.340280   79.725349   36.133453
H   46.828819   43.465225   43.712925
H   29.667160   42.379070   80.994354
H    9.876669   26.562977   44.239326
H   63.789368   25.206444   76.580048
H   66.058044   32.078342    9.706432
H   13.815029   27.279938   19.088331
H   35.991035   42.789402   46.618748
H   58.047844   37.583523   34.495247
H   59.556587   74.989304   65.082787
H   93.803307    7.969993   57.325531
H   32.897545   24.644909   27.360849
H   17.453243   73.532417   74.057991
H    3.254013   30.978220   67.509148
H   78.930595    8.227777   64.624855
H   39.642570   71.510658   66.103455
H   26.437759   53.333817   65.597801
H   73.692612   33.994370   94.846130
H   25.052807   70.128105   24.408405
H   23.678392   88.630760   92.275429
H   14.121199   18.471071   93.660950
H   59.685307   46.853264   47.794075
H   97.234406    4.841827   75.614044
H   26.307425    4.222351   41.053734
H    5.619356   34.788986   20.827410
H   15.575303   22.463354   79.173576
H   94.103371    9.305524   94.522469
H   86.635269   69.218910   41.967781
H    5.839314    7.556715   59.716644
H   82.343346   31.801113   71.855667
H   19.303133   72.847809   81.537193
H   40.434380   79.250511   21.671795
H   49.789680   26.381798   50.785419
