200
TIME:    0.157, STEP:   157
H    6.920719   62.750454   13.920328
H   27.224503   31.666418   86.527710
H   19.877359   65.505257   41.260002
H   15.044722   76.003639   46.670124
H   16.091383   81.625626   54.851841
H   92.318726   55.067745   68.006401
H    2.156730   55.363022   48.044834
H    1.028638   85.302246   28.018478
H   84.057739   88.750542   49.744202
H   13.782970   76.061516   99.346306
H    9.300641   92.821114   90.338791
H   30.434586   39.807453    8.787457
H    9.137042   84.253288   64.693443
H    8.326920   52.856754   38.266262
H   23.629169   71.305649   43.182812
H   31.719681   29.386177   56.113491
H   80.302856    3.831239   19.461828
H   38.533138   79.176994   44.998032
H   62.263866   32.706760   41.261997
H   89.792191   80.844505   40.688213
H   57.088989   72.614967   29.643078
H   91.876823   45.641838   73.773186
H   97.490677   63.144936   51.127747
H    6.858210   87.314552   91.846268
H   99.638855    9.365766   48.372013
H   18.729799   58.653038    9.697844
H   97.288597   57.131336   45.744690
H   92.605499   66.705505    0.512878
H    7.572798   59.052559   38.824375
H   96.800102   18.540882    1.496951
H   13.469855   47.981632   16.093336
H   33.435379   61.561020   91.559662
H   29.128769    7.199565   72.165337
H   99.173546   63.487366   36.839546
H   51.971516   93.230637   34.850430
H   35.772472   51.814388   78.524719
H   83.882217   76.220436   85.331825
H   37.020515   42.608315   18.899282
H   56.142097   49.372726   42.586689
H   90.878731   40.029804   66.938568
H   80.479614    9.101000   98.769203
H    9.208055   44.847347   42.292225
H   78.196304   89.688614   47.246304
H   37.466171   59.203068   15.779866
H   25.941200   73.762825   41.368690
H   42.227802   15.998557   41.785194
H   78.410049   30.278530   94.359077
H   92.136490   65.551872   50.631485
H   83.870476   31.901897   61.106491
H   65.087494   17.426943    9.223952
H   80.182678   71.546661   31.158096
H   24.310965   34.269390   61.756855
H   49.938580   96.797516    6.842337
H   23.641886   80.432159   80.474045
H   80.712112   78.230827   93.457657
H    6.369656   74.394791   75.930359
H    5.667355   16.431374   50.544926
H   66.501877   56.649914    6.801487
H   29.932545   72.874100    5.119036
H   45.022957   96.455238   68.528572
H   50.688328   16.995758   44.661495
H   88.445412   16.228262   48.430092
H   69.160683   23.487064   87.685104
H   22.115026   65.033920    1.814367
H   70.014137   74.841721   14.535562
H   41.995502   13.336576   31.371384
H   89.275490   24.912737   84.120308
H   97.806221   91.261223   85.628296
H   13.570230    4.731622   63.030350
H   45.714745   40.183350   50.987026
H   58.501575   75.156578   71.061203
H   34.473030   26.003502   45.345825
H   74.859512   24.228176    2.274918
H    5.161350   10.789056   58.156502
H   78.134384   99.527946   71.515373
H   51.215836   22.006920   63.419842
H   95.778397   26.860304   73.319603
H   29.629461    4.458553   50.805717
H   10.899536   25.995464   36.776752
H   69.526741   91.129845   98.197845
H   39.845387   31.504833    2.365630
H   22.986940   70.082794   90.423119
H   11.323536   12.755860   92.708191
H   27.380692   59.145531   91.146332
H   41.863865   98.446182   60.134365
H   22.328817   88.678360   29.510616
H   32.135250    2.611156    1.581045
H   76.021721   21.633446    8.311610
H   63.149166   71.844231   76.864273
H   23.859852   82.326874   55.778637
H   44.722157   34.176285   81.123665
H   84.633575   87.807236   96.556778
H   43.316826   17.798185   98.093712
H   63.749733   97.415573   66.825638
H   23.021753   58.048935   64.482925
H   72.709297   25.853588   32.964142
H   78.179695   17.149965   94.754585
H    9.176414   27.148958   47.807720
H   38.898628   70.609474   52.587109
H   65.761276   96.578583   27.230143
H    6.163121   78.131531   65.031441
H   87.485893   75.400856   66.322433
H   21.458883   40.203171   29.342905
H   17.887600   67.786240   86.866356
H   25.448765   28.563488   22.396584
H   84.137222   30.836540   47.776646
H   61.726521   29.066183   56.645508
H   65.240059   31.087597   21.951023
H   70.687241   41.137348   95.119118
H    1.700493   29.217634    5.131041
H   46.102520   96.788040    0.737454
H   82.661217   61.257824   89.565735
H   58.535610   79.311501   95.740738
H   63.505333   21.186724   77.094330
H   66.620049   78.512344   29.682871
H   17.425739    8.225470   75.190041
H   35.987469    7.273962   83.212509
H   41.192219   22.911133   35.637596
H   15.710233   54.597439   87.641785
H   68.592255   45.018307   46.246532
H   39.688301   21.207882   90.239594
H   21.870384   29.446239   45.746708
H   30.235357   25.323116   21.566956
H    5.300177   70.305817   21.499842
H   79.399940   11.007117   95.558228
H   44.681530   60.081314   27.133957
H   97.449730   48.802383   74.260223
H   77.244171   86.918999   34.301579
H   91.446304   55.488075   86.781754
H   63.722221   24.542746   65.087585
H   45.258484   88.149261    0.239463
H   84.885834   85.228165    7.369654
H   92.708778   78.556564   96.757744
H    4.990494   10.874875   48.685360
H    0.325816    2.870875   60.230888
H   64.568718    1.733373   84.904388
H   68.755302   86.353020   51.206772
H   90.510384   66.812141   84.509811
H   44.143753   43.172905   71.569717
H   43.402985   13.070713   97.763748
H   46.508564   65.509682   12.228886
H   61.059265   38.488949   44.312027
H   57.673656   55.233299    2.183746
H   61.516319   29.532259   76.749031
H   36.400547   72.519768   46.354481
H   42.898998   60.545559   33.821331
H   42.768211   97.141273   47.876190
H   44.918808   76.508270   69.301170
H   62.966404   68.257370   98.769569
H    6.808198   87.756981   93.103088
H   79.145790   59.900356   51.970787
H   30.293545    9.406288   50.753361
H   72.319954   34.942097    6.378414
H    7.715795   99.237480   78.003586
H   10.321274   51.687080   59.251484
H   61.038162   43.323101   51.507420
H   58.442455   58.394638   79.772995
H   44.866024   37.991600    7.779607
H   16.180532    2.047073    5.682896
H   64.610016   60.330383   75.055878
H   53.140652   87.781387   85.622726
H   47.501064   23.486429   36.263020
H   61.646618   38.188595   37.266563
H    8.228084   17.741371   74.750000
H   59.748901   19.272028    9.009011
H   10.483682   67.079857   62.755539
H   76.329056   98.909431   51.341812
H   23.559708   27.156239   44.580555
H   92.945160   28.440128   37.052921
H   22.685230   11.086067   91.338013
H   80.950623    4.646757   35.983040
H   49.030251   68.529724   57.203236
H   36.069263   81.020645   92.759415
H   72.245110   76.533920   72.321457
H   75.295563   95.660919    3.133849
H   98.344704   47.212517   23.207115
H   36.270401   50.328350   83.435913
H    0.994395    9.121704   63.818890
H   77.724190   23.309046   70.105598
H   90.248779   53.564766   85.214142
H   82.933159   82.215088   43.649097
H   17.553539   30.004726   66.586113
H   69.456116   90.251877    4.427287
H   49.673653   25.066620   74.136803
H   84.449623   91.934349   78.738785
H   97.522820   35.523407   83.538795
H   28.462078    5.946309   97.426224
H   94.408562   63.708832   22.622351
H    9.021997   60.803276   65.594818
H   48.104244   58.724812   64.654373
H   43.855240   33.770390   79.894173
H   48.333332   82.673599   25.681581
H    2.256852   15.549424   55.904911
H   36.553684   60.218288   31.640545
H   87.742920   57.962639   22.087786
H   75.125504   10.179780   30.703512
H    8.909570   83.296211    0.665303
H   31.321659   99.055771   49.307484
H   13.020134   11.379654   81.729118
H    8.873454   37.804642   98.901924
