100
TIME:    6.093, STEP:  6093
H    5.277977   63.263023   93.567703
H   32.200417   35.034794   62.290051
H   84.496811   12.258941   51.822338
H   82.499298   81.618256    6.184087
H   40.596603   61.138245    0.499913
H   33.534702   94.607094   82.156792
H   33.636433   72.767021   66.933617
H   40.988510   15.724378   48.755390
H    3.850362    0.476177   16.553907
H    8.338926    3.870109   46.283329
H   33.499008   11.407541   52.840370
H   23.287643   29.101032   59.222542
H   55.259903   93.134163   19.590508
H   53.391716   86.295540   20.919773
H   54.611229   25.776009   57.888859
H   56.537735   78.812904   27.269039
H   34.144386   84.975334   28.058172
H   31.362928   98.353867   88.310585
H   40.167027   33.962402   84.364944
H   28.361313   76.419716   31.172358
H    2.709460   49.640499   91.869179
H   46.522186   52.172531    0.403069
H    4.392299   45.068245   58.022736
H   52.930981    9.718233   54.554966
H   11.664079    2.953568   81.538063
H   18.770990   46.535820   17.459438
H   36.672554   89.198135   20.860846
H   18.432411   40.840340   68.177322
H   43.657539    1.896929   69.152832
H   34.625065   40.038170   67.764633
H   55.854858   68.425819   27.320168
H   50.472935   84.168503   35.204506
H   99.539177   22.689260   46.702515
H   35.546135   15.335517   15.062944
H   29.316422   98.335030   95.749420
H    2.292030   62.658684    0.269825
H   64.196022   81.396118   88.569984
H   12.158560   47.449970   52.406734
H   87.884552   48.659966   53.855186
H   89.300919   41.777157   17.418596
H   18.838200   65.246056   85.894142
H   86.729050   65.496841   91.018150
H   63.723415    0.037870   41.577736
H   90.285400   14.913656   76.476646
H   28.133469   91.493973   77.504623
H   99.476128   79.131485    7.914683
H   89.336227   56.196243   83.952126
H   56.564816   58.125900   45.578220
H   43.133324   27.827675    1.420648
H   53.666416   23.470709   57.510521
H   43.083218   81.403488   17.656910
H    1.241567   98.354233   74.068550
H   35.259533   57.338013   48.997593
H   35.591507    7.787688    0.684539
H   55.661369   92.566101   52.173092
H    1.184583    6.124478   85.206696
H   82.521370   13.735972   35.482536
H   72.358307    1.478529   56.613998
H   70.817917   96.212746   43.722389
H   56.942497   96.115601   90.311180
H   44.052082   95.219742   39.337399
H   82.665443   71.229294   19.664383
H   87.714333   91.507362   15.655151
H   61.436287   74.954269   61.717968
H   74.165695   74.207108   62.983616
H   27.043484   39.371910    6.449245
H   98.715225   59.010990   61.232376
H   59.480583   66.002480   57.483234
H   60.578159   11.982201   78.090851
H   53.826546   54.603485   88.903015
H   28.553028   80.833160   89.058693
H   71.570633   49.310226    2.722311
H    9.715965   16.922249    5.521408
H   96.080513   63.791676   41.127678
H   55.937794   37.327564   63.288834
H   69.702934   98.076469   85.947723
H   20.159508   98.444923   98.805687
H   18.240551   52.314804   50.934372
H   53.693111   35.621662   85.661690
H    0.719090   77.104927   96.003868
H   30.102846   92.316544   44.153004
H   98.509460   83.984756   77.261436
H    3.269702    9.015237   10.209459
H   69.337257   33.550682    6.916276
H   55.650826   67.765678   57.104355
H   11.058376   32.859482   64.899612
H   74.092415   60.342049   14.081259
H   54.021202   17.505289   32.402855
H   82.129745   54.923531   78.357918
H   27.635355   58.595234   42.026863
H   73.373314    2.436834   62.134808
H   29.119196   53.730988   49.620605
H   76.026566   10.338613   90.185623
H   36.132427   82.828438   37.640579
H   51.247948    3.955034   56.096500
H   97.178375   55.125458   52.737610
H   78.968803   17.345167   86.775131
H   26.516428   87.940216   56.562851
H   18.456390   63.114826   34.684700
H   17.671434   22.279007   10.782022
