100
TIME:    9.303, STEP:  9303
H   88.198395   68.892189   90.628860
H   43.549545    8.979050   64.690361
H   39.680904   43.198616   14.137182
H   83.038086   49.367363   30.233042
H   11.836340   18.433456   13.463657
H   83.755737   91.129463    0.052765
H   65.398109   89.520760   17.959896
H   88.688843   93.430069   54.023911
H   24.942375   91.846344   14.496130
H   20.660715   49.962299   71.970802
H   34.912628   40.567337   43.635628
H    0.769622   90.002068   30.730835
H   50.528259   98.890968    0.601407
H   94.453033   76.401436   65.203697
H   93.600227   39.043007    3.520525
H   27.470226   98.054428   60.810608
H   76.015053   97.292763   20.277143
H    0.005905   42.154854   77.037674
H   90.164658   68.627304   53.478558
H   41.875668    8.254328   49.724083
H   12.223381   30.074347    4.744658
H   54.268017   56.433853   27.041870
H   61.533745   18.967642   66.180695
H   54.675671   48.119110   16.152208
H   96.856552   48.386681    5.242214
H    3.741263   51.851059   15.427900
H   59.871803   55.763760   84.552353
H   47.581169   90.672302   74.281548
H   13.455966   93.133202   17.414196
H   57.711159   60.590225   22.950211
H   82.187737   56.273060   73.355347
H   53.154377   95.481277   38.038750
H   25.647743   87.830978   35.884666
H   71.175903   21.158142   79.831169
H   49.429832   55.302345   91.054459
H   81.331543   14.083333   90.179665
H   72.077087   63.839119   41.505268
H   79.481026   88.703880   78.927666
H   52.390804   78.721092   42.782318
H   86.954712   41.267731   69.976273
H   99.457886   75.389633   61.519131
H   16.207870   78.084885   54.894390
H   91.348785   19.294701   73.437401
H   85.320107   68.799904   90.332100
H   49.689079   64.855782   52.196171
H   58.041969   40.351299   20.955797
H   14.424170   30.767820   14.769762
H   56.755428   91.187881   44.194080
H   36.965523   61.974712   73.374969
H   21.053610   72.335228   33.066776
H   43.081944   71.516243   51.161835
H   57.255001    0.489253   63.352028
H    1.835375   75.950684   62.570457
H   61.251427   55.420547   42.331306
H    0.075691   73.875900   79.465958
H    5.182634    2.747870   75.930710
H   86.021759   21.112602   40.780235
H   33.334900   98.333183   73.930931
H   23.986683   31.854223   97.293739
H   45.116161   42.848164   99.011147
H   46.543026   45.938023   89.063698
H   68.736259   41.351059   74.425056
H    5.640862   72.462914   95.535828
H   81.860657   92.440384   74.564789
H    1.574103   17.827801   61.916584
H   29.850880   79.793968   96.250328
H   41.171738   69.988922   16.210922
H   37.744019   49.586250   10.939804
H   20.561647   81.332092   76.765472
H   18.964081   15.910856   82.112106
H   26.613163   62.423519   50.559853
H    7.188203   42.704491   37.951962
H    0.418874   58.144482   23.219975
H   25.414722   60.631855   50.400642
H   10.606088   42.013409    6.661357
H   45.587723    3.807374   69.954391
H   11.693519   20.601765   55.735146
H   69.043892   42.427315   28.219749
H    7.627175   26.192875   21.478579
H   43.297112    2.240263   19.459343
H   92.937218   25.526163   36.011055
H   39.385582    4.806638    8.715277
H    6.308547   62.697300   15.913342
H   90.180641    8.236860   13.732569
H   99.352661   66.960373   45.932083
H   37.183231   50.769753   87.811661
H   88.481178   26.948280   67.146111
H    5.646448   60.640724   99.121048
H   48.749027   76.196266   52.104256
H   43.828899   26.525414   56.774628
H    4.739914   75.764374   29.924461
H   66.626694   95.154312   10.787744
H   81.793808    6.649977   38.419853
H   46.144569   77.557663   54.420101
H   95.746155   16.423145   29.857817
H   62.311249   28.366198   86.936722
H   24.173832    1.559008    2.163710
H   20.320368   46.772266   92.119652
H   65.539574   76.974800   65.814796
H   17.057236   39.904217    1.551814
