100
TIME:    9.176, STEP:  9176
H   96.787018   80.538765   90.745132
H   47.057083    2.096856   56.682209
H   37.497898   34.061577   15.628128
H   83.016769   54.599602   37.194702
H   12.974352    8.254030   16.906940
H   85.724609   91.267052   87.476013
H   72.054680   80.945702    8.028332
H   98.670792   82.442368   65.684883
H   28.064278    4.056949   22.490313
H   24.129980   48.138767   66.998238
H   46.725861   35.457184   55.869377
H    5.617188   83.636177   39.770912
H   58.626602    6.577850   13.222187
H    0.741381   76.792885   55.538708
H   92.057686   50.387276    9.627800
H   32.576935    9.162471   71.352600
H   86.227608   88.892113    8.715834
H   97.289017   48.334709   81.440506
H   88.186096   63.299984   46.788074
H   45.296970   10.951353   41.077324
H   19.759865   42.717880    8.191994
H   42.092403   56.265259   37.857101
H   63.229378   20.000040   69.814194
H   66.476105   46.599823   25.584288
H    1.398826   58.458740    4.304771
H    4.340332   55.595016   27.379206
H   70.823051   61.043476   82.033127
H   58.296600   84.744370   70.084129
H   10.694264   81.610649   23.417221
H   52.841301   63.733444   12.854412
H   77.189980   44.885189   83.403183
H   45.135487   98.990753   49.795784
H   16.701584   97.123047   24.443502
H   65.809952   32.796967   85.181618
H   52.590492   64.918037   83.328186
H   70.291519    4.135781   90.578865
H   59.895988   68.489998   31.498129
H   84.730705   91.027382   69.965034
H   57.751911   81.488365   55.089706
H   98.917160   53.157509   59.984245
H    8.137243   71.031372   58.527065
H   26.910706   77.586853   48.411259
H   90.255829   18.532635   64.263542
H   93.428139   66.668251   77.914253
H   60.704880   69.865166   41.327648
H   59.680435   37.928967   20.439840
H   13.431256   23.860781   13.550117
H   56.747677   89.879822   36.336033
H   33.253540   72.493263   78.440552
H   18.388075   70.401237   41.947048
H   42.871525   83.759666   50.158325
H   51.082897   12.273964   71.688728
H   99.201332   75.214294   69.946060
H   64.192200   57.493095   36.726997
H   10.187866   62.746628   78.386566
H    5.024456    2.881462   80.254089
H   77.969925   24.777107   28.701513
H   42.791687   10.326982   77.202049
H   13.970337   26.487787    7.043493
H   53.496464   33.086163    2.623314
H   38.530918   51.843670   98.964256
H   73.243736   42.533157   80.170830
H   97.018921   81.129051    4.244598
H   73.140259   91.748566   78.012253
H   96.533554   27.971561   50.089787
H   37.652596   86.107536   88.741096
H   51.361038   65.597717   10.079029
H   46.516739   42.323128    4.868469
H   14.231674   90.457504   84.730103
H   16.384781    9.532127   82.381470
H   30.646347   71.064644   52.083015
H   17.646177   46.921288   28.643246
H    8.699509   64.426140   26.476559
H   28.210094   68.669716   57.946693
H    4.488728   41.826405   97.032242
H   42.584999   95.668083   78.500381
H    0.159015   31.594311   53.482376
H   63.077351   50.731071   21.205643
H    1.537285   26.565914   20.061029
H   49.525414    9.158789   30.400536
H   90.450935   24.212290   28.420433
H   29.856014    3.982197   19.340113
H   98.275627   60.573399    3.818192
H   81.442802   97.369118   25.331715
H    5.536392   74.905624   58.243347
H   40.106503   46.104340   78.992432
H   79.999138   36.182213   61.090279
H    3.604070   70.802895    0.437179
H   46.113529   83.267540   53.142952
H   55.057865   31.750870   52.235176
H   99.542381   68.906265   27.242455
H   57.229977   85.602570    8.368318
H   73.652832    2.839181   28.598749
H   34.090218   69.870224   45.521130
H   97.941757   27.799389   26.939875
H   51.821579   33.381042   93.496399
H   34.254234   94.270744    9.467770
H   20.565508   40.488735   94.669884
H   71.589592   76.426384   76.451744
H    9.168941   43.162739   13.786303
