100
TIME:    9.671, STEP:  9671
H   63.311676   35.144630   90.291946
H   33.385971   28.921307   87.892509
H   46.006466   69.674446    9.816961
H   83.099854   34.206230   10.061509
H    8.538794   47.930283    3.486088
H   78.050659   90.730782   36.497231
H   46.112385   14.369761   46.737972
H   59.764771   25.266506   20.234238
H   15.896233   56.464752   91.332314
H   10.608042   55.246235   86.379494
H    0.682101   55.374710    8.187597
H   86.725761    8.447763    4.537124
H   27.062195   76.615334   64.029419
H   76.231598   75.267159   93.206871
H   98.069954    6.171425   85.821800
H   12.672680   65.867905   30.263653
H   46.422768   21.632683   53.777634
H    7.875723   24.247871   64.279861
H   95.897812   84.063583   72.869629
H   31.961971    0.439340   74.779259
H   90.385376   93.439095   94.755386
H   89.548538   56.922379   95.703323
H   56.620415   15.976120   55.652130
H   20.482174   52.521454   88.821716
H   83.694443   19.201500    7.958583
H    2.005278   41.002426   80.798058
H   28.137478   40.465054   91.852158
H   16.531031    7.849294   86.444145
H   21.457897   26.520590    0.019452
H   71.822243   51.482315   52.205147
H   96.669426   89.273132   44.240356
H   76.390213   85.312088    3.971165
H   51.570473   60.905930   69.037010
H   86.724487   87.433311   64.327507
H   40.271385   27.439552   13.443751
H   13.320951   42.908268   89.022926
H    7.374088   50.362556   70.502335
H   64.269356   81.971214    4.897662
H   36.856258   70.702538    7.120945
H   52.292820    6.815648   98.928421
H   74.307251   88.018295   70.189049
H   85.194435   79.529465   73.678215
H   94.515778   21.502892    0.019920
H   61.825703   74.976662   26.312489
H   17.761724   50.326725   83.683640
H   53.294289   47.370342   22.450853
H   17.301594   50.783237   18.303392
H   56.777889   94.978165   66.963852
H   47.721504   31.498028   58.695732
H   28.777365   77.939232    7.336084
H   45.131504   36.143669   51.852509
H   75.139526   66.342987   39.195290
H    9.468536   78.084473   41.196068
H   52.730309   49.415054   58.570564
H   70.775398    6.124586   82.593643
H    5.640978    2.360770   63.403122
H    9.352186   10.493830   75.779991
H    5.933635   63.580498   64.452415
H   53.011440   47.405602   69.043495
H   20.833080   71.134201   88.544350
H   69.758514   28.825335   60.375111
H   55.675224   37.925766   57.774834
H   30.631733   47.362610   70.306076
H    7.129703   94.445023   64.575287
H   16.180759   88.436043   96.186363
H    7.245089   61.499535   18.009851
H   11.645866   82.713043   33.978771
H   12.323750   70.632149   28.532333
H   38.903809   54.889954   53.685604
H   26.437958   34.393406   81.331589
H   14.926392   37.382381   46.146278
H   76.883263   30.485741   64.924835
H   76.424973   39.942699   13.783573
H   17.314747   37.342670   28.535143
H   28.331980   42.555279   34.563221
H   54.288528   27.392765   45.193344
H   45.116158   88.750412   62.262856
H   86.333199   18.366035   48.544090
H   25.273375   25.111942   25.586123
H   25.250275   82.193764   87.756020
H    0.141551   29.333292   58.005928
H   66.998802    7.195569   77.927422
H   29.585123   68.851601   50.960827
H   15.498868   39.727982   80.120720
H   81.434448   43.940361   10.259242
H   28.712650   64.288368   13.366937
H   13.059145    0.191357   84.693718
H   11.564342   31.194395   95.308304
H   56.385746   55.706276   49.094490
H   11.292216   11.383934   69.929581
H   19.800497   95.636688   37.695946
H   93.854965   22.830969   17.798365
H    5.383322   17.692335   66.877861
H   79.633827   99.726608   82.423271
H   89.384094   83.460396   38.314003
H   92.706512   13.835270   67.929153
H   94.964165   22.676979   80.999817
H   19.610041   64.979813   84.730003
H   48.008812   78.563911   34.990131
H   39.914047   30.461971   66.102737
