100
TIME:    1.746, STEP:  1746
H   99.247955   61.904221   97.547501
H   52.702095   99.409660   88.137444
H    9.767019   99.518837    2.839339
H   81.769669   60.715050   44.459431
H   79.532288   12.707112   18.363392
H    0.941202   99.316521   51.658436
H   61.460918   79.236305   26.992332
H   82.654137   39.652843   47.882622
H   10.707985   18.422745   90.182396
H   27.125750   41.453331   76.062401
H   37.846359   36.496449   71.565216
H   89.199768   11.208513   68.646889
H   32.199677   56.071983   51.590271
H   68.629936   99.694191   90.111046
H    1.737165   14.067577   66.845444
H   31.322113   59.019150   88.108170
H   83.691681   97.462753   32.324127
H   38.455688    9.792694   39.015915
H   72.456444   51.601639   55.347172
H   45.477036   68.733749   35.208412
H   60.666519   82.397644    9.855255
H   29.765812   46.404457   70.587074
H   62.432411   80.422112   82.394608
H   56.819206   57.622257   77.401581
H   67.136955   47.700066   49.444427
H   38.653111   75.582291   25.520067
H   11.518875   69.899734   34.613743
H   85.219437   37.937084   24.485388
H   49.136032    7.502998   74.638145
H   67.942757   47.626572   22.190407
H   84.784431   78.617584   71.248962
H   76.000732    4.274168   37.628090
H   93.343216   40.736198   55.090424
H   51.874138   13.712152   98.195663
H   37.372261   26.936073   31.047607
H   24.362835   21.640970   14.637460
H   47.262840   40.594582   46.043217
H   91.826378   26.997356   45.651196
H   72.228073   43.236046   74.781677
H   98.740089   48.728954   75.406509
H   15.921921   16.092916   83.479538
H   74.700653   90.218758   84.830185
H   26.280157   73.970184   27.589085
H   67.865395   42.033607   51.448170
H    5.203358   63.000149    5.519735
H   55.561718   96.219063   90.260536
H   54.516224   19.927088   42.542671
H   56.332661   13.360086   76.610527
H   16.068647   87.845848   74.826767
H   62.508999   57.324635   61.545887
H   43.411411    1.078099   71.826401
H   89.985771    1.722895   59.441532
H   45.098404   32.132629    1.464146
H   36.259075   78.719734    8.863115
H    1.760216   11.568285   15.222189
H   95.750870   10.696985   33.188843
H    6.941448   39.167061   22.046698
H   96.046478   11.999272   68.582596
H   27.980209   12.540982   77.442596
H   43.800159   61.992443   13.949319
H   69.839676   97.375801   78.263420
H   36.942200   11.692949   16.352684
H   92.662613   88.088875   13.775916
H   62.935364   51.292297   79.737587
H    1.622875   21.393646   58.163555
H   94.085854   55.474190   49.422497
H   47.483994    8.727496   51.359570
H   59.757622   17.392765   49.671497
H   43.923370   24.329895   50.727333
H   65.754700   35.961639   98.056549
H   66.588966   76.602791   41.206913
H   30.001726   93.578583   84.455894
H   93.148743   31.941906   16.978123
H   91.764275   38.889275   99.438591
H   46.352791   31.128050   33.757061
H   66.938225   19.474440   78.445396
H   25.480101   75.216049   21.927092
H   14.010585   36.553902   10.864125
H   45.243973   48.387547   37.158745
H   13.898462   13.862631   70.501747
H   45.049908   47.344830   84.343254
H   72.328079   55.630264   40.778397
H   28.272137   36.398865   96.197845
H   70.280159   61.569073    3.952126
H   67.313721   39.671257   78.497375
H   11.104855   73.189766   63.030800
H   83.766106   76.404495    6.799153
H   84.062317   65.505615   77.593452
H   91.916206   96.958183   13.914900
H   11.968239   37.440613   86.632912
H   95.476021   67.709091   70.334061
H    7.473392   26.821424   66.788658
H   97.311302   79.947250   53.990555
H   15.984837   19.140028   44.542130
H   26.405201   93.333069   56.207573
H   38.134048   26.783091   77.265686
H   24.012974   67.879860   36.775299
H   13.275859   31.103821   28.100159
H   25.536949   44.376614   98.797501
H   47.673874   33.855145   29.521332
