100
TIME:    1.239, STEP:  1239
H   33.533363    8.398726   98.011673
H   66.805199   71.922920   56.155972
H    1.052519   63.042629    8.791977
H   81.684570   81.602806   72.250603
H   84.073441   72.068840   32.110023
H    8.803478   99.865791    1.447488
H   88.034416   45.001446   87.344185
H   22.503342   95.791763   94.432716
H   23.171013   67.168579   22.096067
H   40.980614   34.173561   56.209778
H   85.006271   16.096073   20.403059
H    8.549686   85.795494    4.736076
H   64.448105   86.746040    1.982855
H   93.733925    1.257203   51.529339
H   95.570946   59.352268   91.214493
H   51.707016    3.363800   30.192856
H   24.453125   63.934036   86.163597
H   27.621132   34.448227   56.592575
H   64.557777   30.330942   28.637918
H   59.135307   79.502548    0.689560
H   90.752625   32.871117   23.616032
H   81.151176   45.735275   13.756112
H   69.201591   84.545509   96.899994
H    3.925007   51.541599   15.054934
H   85.270622   87.911293   45.703972
H   40.977840   90.691101   73.040710
H   55.239136   90.973160   24.552809
H   27.998215   14.271958    7.726840
H   38.111938   61.503696   98.604912
H   48.501675   60.174698   81.885765
H   64.840492   33.151901   11.368450
H   43.988316   18.281250   84.563652
H   57.632198   77.831306    9.415860
H   30.452583   60.175758   19.554144
H   49.974541   65.261238    0.176270
H   80.280884   81.813858   16.381109
H   98.635612   59.161476    6.093690
H   12.781979   36.276936    9.874945
H   95.018936   54.058998   23.374390
H   46.493202   96.191826   35.515865
H   50.568520   98.696190   71.534836
H   20.266930   67.466576   61.010410
H   21.913069   70.929855   90.967659
H    0.241405   33.535385    1.877254
H   49.181000   83.005783   62.134674
H   62.102680   86.548805   88.202705
H   49.162769   92.577209   38.210396
H   56.305584    8.140081   45.240215
H    1.249763   29.835289   95.049210
H   51.875584   49.607769   97.008385
H   43.450092   50.026283   66.480682
H   65.345955   48.769451   92.723221
H   34.581032   29.192871   30.910099
H   47.998768   86.989738   86.490738
H   42.123543   67.123199   10.919891
H   95.116501   11.229816   50.448318
H   74.798141   53.796227   73.826622
H   33.799744   59.879494   81.641312
H   87.994438   91.118820   16.364269
H   77.256912   23.021307   28.369469
H   37.858196   20.952972   17.794075
H   54.936615   16.412918   39.294403
H   58.274536   22.663136   48.557961
H   28.118784   48.534340   93.500298
H   81.500832   61.888309   10.946485
H   25.231422   80.678749   19.444700
H   88.160965   91.198486   26.881809
H   94.779427   88.396408   25.433966
H   18.653053   60.759689   82.524757
H   55.484222   10.460661   99.124146
H   82.688011   11.099161   47.287571
H   71.805130   10.405432   47.335838
H   26.206997   57.018818   29.978817
H    2.920689   70.974350   29.571144
H   21.909451   30.406649   95.322075
H   54.951923   86.981102   12.561088
H   79.448540   19.158484   12.957705
H   90.190796   69.706749   82.865570
H   20.940683   49.872898   31.503750
H   38.762711   41.475746   14.180125
H   35.128223   42.099682   54.040539
H   34.286137   52.319168   83.172806
H   96.192848   27.936384   47.908451
H   35.402172   18.184427   50.261055
H   91.999954   71.384933   27.645195
H   22.774921   54.566761   27.823326
H   49.904732   13.267540   82.623337
H   75.900620    6.097336   82.863060
H   81.394966   25.186388   18.062954
H   56.793930   58.301292   68.506981
H   74.727516   40.334003   59.627148
H   69.960411   88.691017   57.128891
H   64.780556   64.753342   14.767172
H   66.982704   88.387306   10.358479
H   35.171558   38.747818   44.556847
H   96.257874   46.803886    3.452842
H   64.256332   38.783993   65.933060
H   11.414334   26.787018   36.212502
H   49.688866   42.191135   41.265598
H   16.187515   46.879047   78.352364
