100
TIME:    8.978, STEP:  8978
H   10.176841   98.696419   90.926407
H   52.525528   91.368179   44.196934
H   34.094471   19.817074   17.952278
H   82.983536   62.756950   48.048508
H   14.748575   92.383545   22.274929
H   88.794189   91.481560   67.868164
H   82.432640   67.576714   92.544456
H   14.233200   65.311935   83.863686
H   32.931496   23.094341   34.953861
H   29.538755   45.295780   59.245735
H   65.143341   27.490601   74.942467
H   13.174820   73.711403   53.864998
H   71.252365   18.561897   32.898735
H   10.544923   77.403175   40.470272
H   89.652779   68.073616   19.149239
H   40.537903   26.480370   87.788147
H    2.149578   75.795036   90.691109
H   93.053238   57.969444   88.304764
H   85.101410   54.993084   36.357243
H   50.630970   15.156164   27.596552
H   31.509468   62.429962   13.566328
H   23.109949   56.002411   54.718643
H   65.872963   21.609606   75.479019
H   84.872437   44.231171   40.289845
H    8.480205   74.160660    2.843171
H    5.274273   61.432053   46.012516
H   87.896080   69.273880   78.105515
H   75.003540   75.502396   63.540016
H    6.388690   63.646358   32.776329
H   45.248924   68.633896   97.114288
H   69.398201   27.130665   99.068314
H   32.633595    4.461144   68.125648
H    2.754387   11.609379    6.606099
H   57.444138   50.942535   93.523262
H   57.518135   79.909431   71.282501
H   53.079517   88.627533   91.201241
H   40.905983   75.740974   15.896447
H   92.915245   94.649849   55.992661
H   66.109795   85.802696   74.277603
H   17.566545   71.693703   44.405220
H   21.668623   64.236603   53.862270
H   43.597015   76.810394   38.303699
H   88.551849   17.344532   49.962475
H    6.069674   63.344589   58.554569
H   77.880341   77.675072   24.383364
H   62.234894   34.152416   19.635435
H   11.883248   13.092325   11.648624
H   56.735592   87.840485   24.084904
H   27.466354   88.892555   86.338074
H   14.232199   67.386040   55.791882
H   42.885120    2.875168   48.070648
H   41.460247   30.646881   84.686104
H   95.095467   74.066223   81.444901
H   68.778442   60.724312   27.989918
H   25.953453   45.394135   76.703735
H    4.777847    3.089739   86.994476
H   65.416672   30.490273    9.870000
H   57.535339   29.026194   82.301903
H   98.354149   18.121218   22.244108
H   66.562111   17.866665    8.254906
H   26.039961   61.050900   14.401155
H   80.271141   44.376114   89.128807
H   83.577423   94.640038   17.822052
H   59.544186   90.669983   83.387039
H   88.675308   43.786243   31.651144
H   49.816109   95.950737   77.033791
H   67.246719   58.752743    0.519183
H   60.193893   30.999454   95.402924
H    4.363101    4.684502   97.147400
H   12.363509   99.587296   82.801422
H   36.934895   84.536354   54.457710
H   33.950966   53.495506   14.130012
H   21.609482   74.221001   31.553753
H   32.568233   81.201820   69.711403
H   94.951019   41.534855   82.019699
H   37.903587   82.978874   91.824051
H   82.176590   48.732296   49.970184
H   53.776463   63.677086   10.270263
H   92.041725   27.147503   17.850992
H   59.235680   19.945131   47.458458
H   86.574684   22.163889   16.586235
H   14.998335    2.696848   35.904640
H   85.752586   57.262119   84.962364
H   67.820030   80.426003   43.415348
H   15.177170   87.292709   77.437286
H   44.664043   38.830704   65.242767
H   66.775169   50.578423   51.648903
H    0.419943   86.646278    2.490054
H   42.004642   94.292046   54.762337
H   72.563705   39.897644   45.157921
H   91.439415   58.214916   23.061058
H   42.579983   70.710876    4.596129
H   60.960606   96.898735   13.287105
H   14.954519   57.857777   32.170269
H    1.365065   45.535580   22.390642
H   35.467606   41.200012    3.723431
H   49.970726   82.907860   20.855362
H   20.947695   30.692265   98.645836
H   81.021904   75.571373   93.035332
H   96.870316   48.242954   32.860859
