100
TIME:    8.355, STEP:  8355
H   52.307365   55.827751   91.496780
H   69.731796   57.610676    4.914049
H   23.385706   74.996246   25.264942
H   82.878967   88.423759   82.197090
H   20.331106   42.447346   39.166122
H   98.452515   92.156502    6.169299
H   15.085025   25.507318   43.825047
H   63.199768   11.416169   41.065727
H   48.246025   82.993423   74.170563
H   46.555244   36.350422   34.852760
H   23.093277    2.424303   34.953827
H   36.954643   42.483456   98.211540
H   10.979120   56.268341   94.810394
H   41.391182   79.323433   93.058693
H   82.085823   23.723038   49.108109
H   65.586807   80.970055   39.503204
H   52.247658   34.588940   33.976967
H   79.730621   88.284798    9.901451
H   75.395554   28.855717    3.536921
H   67.415176   28.386454   85.179878
H   68.479179   24.450520   30.475527
H   63.382328   55.175369    7.772815
H   74.190910   26.674047   93.303192
H   42.758064   36.778290   86.559082
H   30.760822   23.566788   98.243507
H    8.212885   79.798080    4.639096
H   41.618042   95.168839   65.747421
H   27.571356   46.422855   42.944778
H   92.841957    7.123202   62.226616
H   21.360836   84.052994   47.586853
H   44.877941   71.264000   48.358070
H   93.297203   21.672840   25.799843
H   58.872875   57.190666   50.481339
H   31.121319    8.036825   19.768305
H   73.022789   27.079247   33.377338
H   98.923950   39.829720   93.159523
H   81.151909   98.555916   66.806664
H   18.665180    6.049809   12.031119
H   92.404015   99.377586   34.650398
H   76.245300   30.015944   95.388367
H   64.246429   42.861801   39.184658
H   96.099899   74.367294    6.498744
H   83.190338   13.606970    4.964462
H   45.848446   52.882988   97.643219
H   31.921741    2.249077   71.071098
H   70.276115   22.271580   17.104403
H    7.012380   79.211189    5.665868
H   56.697567   81.423782   85.537621
H    9.257179   40.488686   11.188910
H    1.155198   57.901882   99.350304
H   42.927898   63.022209   41.501846
H   11.181473   88.456924   25.583000
H   82.176506   70.453857   17.626749
H   83.208893   70.888000    0.500280
H   75.557228   90.796982   71.408768
H    4.001902    3.745074    8.202881
H   25.922890   48.466545   50.617516
H    3.925614   87.860344   98.348412
H   49.216473   91.796669   70.073593
H    7.675868   69.982117   25.974510
H   86.740128   90.025391   62.973255
H    2.382646   50.174911   17.316868
H   41.281673   37.153229   60.543030
H   16.762264   87.276260    0.298695
H   63.949608   93.543762   73.633606
H   88.088173   26.921410   40.197163
H   17.231199   37.216389   70.441452
H    3.228659   95.368156   65.619919
H   73.315216   49.449318   36.221931
H   99.710442   68.292801   84.122787
H   56.722103   26.926487   61.929604
H   85.253281   74.181053   68.463120
H   62.229584    5.039705   47.528965
H   46.280964   20.632290    6.728318
H   64.939865   40.617504   34.783268
H   23.173693   43.050232   33.744133
H   25.595264    2.653166   38.919197
H   24.510939    4.411266   75.859009
H   62.163948   28.977451   10.898060
H   89.788689   53.883202    1.130587
H   74.378197   15.718667   79.349869
H   68.247757   98.653931   88.024712
H   46.347153   46.843296   25.630939
H   24.960396   27.114870    0.317867
H   45.511536   26.265491   37.829384
H   59.004185   15.946132   21.979935
H   25.166414   95.875587   21.941948
H   90.400414   36.498596    8.949654
H   29.075638   28.978792   59.857674
H   27.644297   65.530899   22.888617
H   65.943718   24.577137    9.904441
H   96.484291   23.855103   92.724556
H   21.024952   78.209496   65.109558
H   54.743484   20.061024   90.163643
H   12.137638    1.338799    8.075985
H   84.010315   65.802124   35.902458
H   99.422112   47.154945   56.685066
H   22.150232   99.866066   11.153906
H   10.700065   72.881111   45.219105
H   58.171185   64.227737   92.876129
