100
TIME:    1.606, STEP:  1606
H    8.715380   74.742966   97.675674
H   56.596443   91.819633   79.306267
H    7.360520   89.446510    4.482902
H   81.746170   66.482872   52.133839
H   80.786255    1.485507   22.158939
H    3.112230   99.468193   37.793232
H   68.798500   69.783485   16.044151
H   93.657860   27.541485   60.737389
H   14.149452   31.883133   98.994347
H   30.951204   39.443138   70.580833
H   50.868820   30.863209   85.051239
H   94.542480    4.191263   78.612404
H   41.104553   64.542137   65.504723
H   75.562004    0.125740   79.457664
H    0.034132   26.572578   73.574570
H   36.951080   71.264458   99.729263
H   94.947479   88.204330   19.577787
H   35.463898   16.601105   43.869431
H   70.275352   45.728073   47.971836
H   49.248550   71.707382   25.676554
H   68.974319   96.334412   13.655075
H   16.341740   46.219673   82.507240
H   64.301613   81.560722   86.400040
H   69.826714   55.943180   87.798615
H   72.144279   58.803123   48.411560
H   39.295048   79.754349   38.642128
H   23.591248   75.718826   31.835577
H   97.032791   31.402355   19.857779
H   46.091904   94.801147   81.256187
H   62.574413   51.091537   11.061179
H   79.277229   66.062958   82.327454
H   67.161011    8.141952   50.588600
H   83.482376   50.979424   42.478119
H   45.958916   26.542305    4.093560
H   40.852180   37.518959   22.522980
H   12.190061   10.643122   15.118646
H   33.835564   45.721535   35.011723
H   97.613426   29.559765   35.772198
H   78.521408   46.224632   88.199341
H   11.926538   61.835796   64.392105
H   25.489029   11.289069   80.181198
H   87.283051   83.936104   78.252731
H   25.074255   73.130646   17.476704
H   76.805519   39.686958   37.760273
H   17.347294   68.524246   93.539505
H   57.367901   93.548775   89.692299
H   53.037952   12.374574   41.346382
H   56.325184   11.918665   67.948112
H   11.976697   99.441307   80.410873
H   59.572750   55.193745   71.338097
H   43.422092   14.594549   70.350266
H   83.181877   14.713911   68.632126
H   42.194199   31.320862    9.595192
H   39.500805   81.003365    2.685657
H   12.905745   99.295059   14.034178
H   95.575699   10.844118   37.954773
H   98.066040   43.206673    8.731428
H    6.471128   25.220856   72.188553
H   16.939102    6.625493   88.189972
H   53.038288   51.231182   17.931114
H   61.008495    3.886550   89.179558
H   41.911072   12.996317   22.687675
H   83.167068   97.635689   23.380470
H   53.321259   50.530731   83.537941
H   96.066368   32.575237   45.125072
H    2.686262   62.434029   41.144604
H   58.716293    3.887486   44.600536
H   69.428337    9.385640   42.978687
H   36.945374   34.389404   59.508308
H   62.918190   28.919790   98.351349
H   71.034462   86.128242   42.885990
H   41.544941   98.224884   74.206261
H    2.276973   38.866497   20.568058
H   94.844719   47.749290    7.759239
H   39.603371   30.928846   23.143822
H   63.629086   10.501738   87.866173
H   12.768995   87.349838   19.450666
H    7.433131   45.708717    3.132229
H   38.533005   48.797703   35.597160
H   20.764389   21.487371   82.562904
H   42.310192   45.896465   75.975639
H   61.824017   54.715958   52.484940
H   19.414257   34.061829   82.863495
H   60.649662   49.589092   16.739601
H   74.130432   48.428734   92.068848
H   14.327358   68.047859   53.308815
H   74.415825   86.583633    0.123263
H   81.808594   76.714417   79.049477
H   89.010933    4.753091   15.060186
H   24.346180   43.200958   81.627724
H   89.746651   60.149517   67.377518
H   97.114693   16.292479   64.120506
H   88.328453   75.751694   43.159866
H    2.453105   10.647977   35.103195
H   28.826084    5.873184   52.990410
H   26.570633   32.311150   84.496826
H   35.125259   59.845501   44.826752
H   12.761828   29.911804   30.340530
H   32.205742   43.773129   10.524532
H   38.979416   37.451488   43.005318
