100
TIME:    7.015, STEP:  7015
H   42.926102   78.711800   92.723587
H    6.739691   84.996483   20.423054
H    0.351992   78.591362   40.996548
H   82.654053   43.633026   55.647884
H   32.338333   35.040524   75.500046
H   19.233967   93.608223   73.465744
H   85.313782   35.024204   39.035290
H   68.521126   95.489105   64.100883
H   81.185783   11.829812   58.518764
H   83.154976   17.110003   82.383369
H   47.736816   48.506229   64.028206
H   88.097443   75.316391   93.594139
H   96.426353   37.375515   27.975372
H    7.740648   83.453682   91.084221
H   65.810188   43.418449   13.551991
H   19.465775   98.171326   50.734863
H   60.002541   45.957874   11.991479
H   51.080074   53.489090   56.348404
H   54.524036   72.642456   32.939175
H    3.523193   56.838795   93.946465
H   47.996674   57.852707   66.841133
H   34.915222   53.396500   21.886200
H   92.081841   37.569679   31.644056
H   67.264198   20.748018   86.078796
H   78.687935   29.835457   88.347267
H   14.530956   19.298740   30.739859
H   57.168423   50.872849   39.157063
H   40.636345   83.876198   98.649918
H   63.705299   85.547859   25.568819
H   69.979462   17.218895   41.060600
H   92.139366   51.103745   54.374535
H    8.688663   58.691730   49.850365
H   64.485481   55.231392   29.763556
H   74.502098   30.839737   76.220749
H    6.371746   28.536079   51.850739
H   82.439796   34.874069   97.371559
H   52.628273   47.631470   61.219883
H   74.048363   30.574680   17.470993
H   48.968075   28.570601   64.506683
H    2.459225   55.463154   89.960129
H   55.825867   96.886345    7.615514
H    9.027994   69.112473   38.088276
H   71.658356    5.568830    8.175493
H   31.412189   30.389120   66.624260
H   48.156097   55.114285   56.402779
H   87.574089   96.717239   11.660448
H   96.539352    6.337105   92.801277
H   56.615780   67.622208    2.626343
H   70.083321   51.466953   64.645126
H   73.020752   37.506222   93.043007
H   43.019909   92.390228   27.374798
H   46.057026   12.798706   13.545489
H   54.385799   62.684082   95.448128
H   14.242401   92.745605   41.368240
H   82.249954   73.366615   60.016338
H    2.332933    5.154624   53.819641
H   40.971966   87.131401   23.172447
H    3.704658   14.407179   32.866196
H   43.534698   35.174335   72.942924
H   96.101906   66.985428   64.087303
H    2.211761   52.340553   67.450302
H   49.941872   62.647446   77.948196
H   50.309490   28.592377   52.430847
H   24.746769   79.976761   36.682888
H   10.759356    0.567390   48.845615
H   70.404938   93.537010   60.965393
H   24.742163   90.889343    5.745817
H   95.791573   18.732752    1.560165
H    6.527579   45.733170   20.263569
H   72.505821    0.975122   86.961548
H   99.273598   18.101257   78.000771
H   95.586388   18.690163   70.245476
H   49.600342   71.318832   81.884583
H   75.779518    5.440579   86.346466
H    0.391885   38.644390   33.183613
H   91.495201   57.169621   23.909269
H    3.894254   18.634205   15.153440
H   61.557781   92.026512    1.850661
H   97.909096   32.913456   95.945839
H   55.502640   26.879654   16.572533
H   48.145828    1.855484   99.259720
H   67.695686   89.964050    0.129925
H   61.591026   24.433630   98.015808
H   32.770725   12.447693   22.705563
H   10.757200   10.091716   67.726814
H   89.839584   66.729080   28.926239
H   35.670780   93.304817   58.045647
H   68.849510   43.726765   22.843239
H    1.263219    3.588722   70.817146
H   46.118801   20.659245   74.984909
H   11.105457   52.220589   81.605759
H   97.337860   23.074276   67.186531
H   35.128407   38.004520   61.485298
H   25.239525   38.764732   99.809738
H   35.308220   21.368393   77.283813
H   73.331818   18.717196    5.114985
H    5.784943   70.256210   33.750565
H   24.736750   33.561863   38.055603
H   74.534691   67.094673   57.458393
H   74.939034   98.619217   21.962894
