100
TIME:    4.453, STEP:  4453
H   16.184151   13.658466   95.069168
H   77.494606   46.166084   58.882866
H   56.297714   94.271126   71.074028
H   82.224030   49.187126   96.078377
H   55.285934   29.685091   44.964905
H   58.972019   96.383827   19.741411
H   19.589005   62.026875   38.683407
H   69.889275   73.842407   99.333549
H   44.164696   58.155609   19.786116
H   53.151314   80.321846   82.064728
H   86.047821   45.418552   10.814342
H   85.881844   46.896431   75.959801
H   59.911972   92.307945   82.549561
H   34.594063   91.350471   96.114563
H   34.666771   72.267548   36.720531
H   22.479061   22.253532   63.403259
H   66.023354   76.501434   78.762505
H   96.293694   78.149178   45.162548
H   14.625355   65.164291   97.964798
H   72.544334   11.251661   19.513529
H    0.029398   12.906666   36.381866
H   89.293793   49.995407   40.064178
H   26.290062   58.406258    4.943845
H    5.309566   90.088409   76.355011
H   70.319366   33.014503   69.426247
H   26.247034   95.012619   71.677757
H   78.092201   57.372822   88.322243
H   56.809856   64.290695   13.963010
H    7.997046   53.102840   46.676033
H   71.741150   80.627769   37.388893
H   91.308434   21.364929   57.071754
H   46.922283   29.480400   87.027550
H   84.020851   42.679268   98.958359
H   66.251358   65.631866   84.153816
H   70.081604   22.307610   95.885895
H   59.729252   34.207096    5.428200
H    6.900006   41.457993   59.344288
H   79.940758   77.461143   36.677113
H   57.111820   84.394829   12.783602
H   43.770447   95.307991   88.387207
H   30.920197    8.978383   47.256451
H   31.410873   11.710382   12.007263
H   49.597134   90.203262   23.119032
H   95.005310   87.397095   16.125841
H   70.390053   56.196976   37.166279
H   20.637882   47.850971    1.249757
H   76.523727   67.007103   68.211769
H   56.477230   41.234421   44.104317
H   95.197556   63.651066   66.844177
H   19.270359   98.509605   72.214821
H   43.204884   39.735405    0.368467
H   21.539724   50.534641   81.730927
H    1.239952   47.828735   44.246220
H   73.569206   34.550339   28.314308
H   86.240204   48.838726   38.221981
H   99.137924    7.849599   41.036179
H   78.552155   61.057289   79.504753
H   94.476212   56.356850   98.855209
H   41.474907   26.919510   69.624870
H   65.165329   70.061356   36.956673
H   40.599701   71.485619   67.203865
H   40.868950   86.494186   93.869247
H   76.375298    3.417996   28.114891
H   48.819580   66.020554    6.238796
H    9.068837    5.189881   10.257415
H   27.790138   20.900856    9.479613
H   30.296412    2.315501   82.052719
H   72.766548   72.208939   79.081749
H   78.839645   29.822144   80.948517
H   20.604490   72.116699   92.356384
H   80.629250   92.417465    8.730137
H    6.797402    3.738447   82.649986
H   16.647478   98.044136   47.574936
H   32.181683   67.586159   38.571404
H   76.867439   34.987782   38.966030
H   30.929445   92.968102   96.299576
H   71.259232   40.590023   69.802391
H   41.190365   59.550953   60.363930
H   75.049400   40.438862   67.368843
H   81.141602   66.435402   37.291222
H   98.011002   75.349991   46.133938
H   75.439659   73.309036   14.420340
H   99.535561   81.589172   54.025860
H   56.508324   93.211617   56.703354
H   35.505737   70.348106   16.083862
H   48.807705   72.622215   51.013092
H   64.560524   79.583542   35.879837
H   27.633116   48.776207   49.433762
H   48.096542   46.235939   91.771004
H   72.634232   26.066895   83.400864
H    6.257794   13.881428   27.501017
H    7.774011   30.388985   18.376616
H   70.899467   61.130608   63.361858
H   77.627518   83.340515   27.061934
H   79.600609   50.857666   18.411987
H   61.721130   19.887348   37.445839
H    9.144427   23.228970   81.092682
H   23.211256   54.152313   84.779228
H   96.582611   56.045429   72.052193
H   15.804661   64.359108   68.769379
