100
TIME:    1.339, STEP:  1339
H   26.770964   99.228287   97.920120
H   64.023521   77.344368   62.463955
H    2.771197   70.237144    7.617782
H   81.701355   77.482933   66.769646
H   83.177750   80.084282   29.398537
H    7.252758   99.757454   11.351013
H   82.793022   51.754223   95.164314
H   14.643539    4.443178   85.251503
H   20.712822   57.554016   15.801429
H   38.247765   35.609413   60.125946
H   75.704514   20.119816   10.770567
H    4.732700   90.808006   97.618065
H   58.087425   80.695930   92.043388
H   88.782448    0.948904   59.139660
H   96.787071   50.420536   86.407974
H   47.686325   94.617180   21.892075
H   16.413651   70.547195   95.268517
H   29.758125   29.585251   53.125778
H   66.115700   34.526344   33.906017
H   56.441368   77.378525    7.497941
H   84.818481   22.915520   20.901875
H   90.739799   45.867264    5.241105
H   67.866447   83.732216   94.038971
H   94.633888   52.740940    7.627903
H   81.693962   79.979774   46.441734
H   40.519314   87.711060   63.667267
H   46.615631   86.816666   26.537214
H   19.560867   18.939693   11.032268
H   40.286316   70.576569   93.877739
H   52.336208   57.699722   89.835594
H   68.774208   42.119492    3.455572
H   50.302402   15.518613   75.306145
H   64.676346   70.514717   18.424650
H   34.677742   51.011330   15.341543
H   47.488884   57.702034    6.265296
H   88.975342   89.669083   16.037024
H    8.226884   55.499367   13.973138
H    8.648945   34.446644   16.931538
H   90.523697   51.924294   13.789626
H   37.074715   86.830559   43.384060
H   43.734871    2.127607   73.890793
H   11.279503   71.954185   65.708588
H   22.774427   71.529526   98.191170
H   93.855614   35.211563   11.654704
H   40.507141   79.059860   70.691971
H   60.812550   88.456154   88.608589
H   50.218678   97.971191   39.064888
H   56.310925    9.169668   51.427654
H    4.172640   21.553581   91.060562
H   53.972904   51.129833   90.013756
H   43.442463   40.372047   67.535065
H   70.205879   39.489819   86.158890
H   36.655464   29.772705   25.102222
H   45.683247   85.358574   90.903580
H   34.162270   75.889374   11.768471
H   95.241623   11.124722   47.044083
H   81.138168   50.910789   83.337425
H   26.353165   50.435829   79.065628
H   95.881706   95.343979    8.687191
H   70.657486   30.707922   25.525230
H   44.166180   16.302856    9.997450
H   51.387421   15.482025   34.769409
H   65.057709   15.843601   41.697609
H   34.985786   49.078316   90.785759
H   85.469643   53.901096   20.259306
H   19.088234   75.707436   25.357481
H   80.137894   94.656128   31.710072
H   87.871773   94.115402   30.214544
H   23.637337   53.574326   76.253395
H   57.509827   15.490530   98.913574
H   79.512657    4.294886   46.088230
H   63.559322    7.086454   54.657768
H   19.686535   52.072681   27.414577
H    0.719766   64.646530   23.627846
H   26.730846   30.548937    2.902755
H   57.316273   93.389793    5.832503
H   88.527519   10.491110   14.727152
H   94.888977   63.168259   88.387726
H   25.734232   49.579929   32.618996
H   33.858536   36.029121    5.565176
H   37.085163   43.134228   60.017406
H   41.789646   52.972244   74.810989
H    2.520483   29.605314   57.432987
H   42.281597   26.741556   41.127144
H   87.130875   65.130356   17.951286
H   20.473133   58.240314   34.767601
H   56.583504    5.996727   87.391708
H   77.510422   98.091202   81.823936
H   83.470161   19.618837   17.244701
H   47.952988   54.186760   72.082115
H   78.819923   45.733326   61.738964
H   77.359398   96.212074   59.033951
H   71.196877   67.750168   22.503729
H   76.647621   94.452675   17.100956
H   33.442738   29.790146   46.854820
H    4.517507   42.854912   98.287643
H   56.318710   44.522823   60.182022
H   11.781499   27.638458   34.612617
H   44.925072   42.622196   32.889286
H   22.397842   44.310230   68.721016
