100
TIME:    5.248, STEP:  5248
H   62.421547   40.752937   94.341324
H   55.537971   89.244843    9.008323
H   69.965637   51.465881   61.744022
H   82.357468   16.432693   52.503166
H   48.165192   93.407852   23.409794
H   46.641125   95.522545   98.472832
H   77.921791   15.707050    0.853445
H    7.403847   42.620220   26.339771
H   24.622078   81.719528   69.745140
H   31.425245   91.736870   13.194609
H   12.098846   77.407303   34.235806
H   55.541176   86.745903   19.370588
H    9.181229   44.233833    3.554156
H   95.231697   88.900063   56.616196
H   44.334969    1.255282   98.504913
H   90.512573   52.719803   97.410858
H    2.094097   29.085270   51.134491
H   13.292682   39.468105   17.603098
H   27.007805   98.511688   39.846577
H   51.125099   94.367714   73.640877
H   52.852959   33.762482   14.804932
H   65.511215   51.050781   72.362610
H   15.675620   51.940575   82.198380
H   31.442799   99.609589   17.310669
H   41.884918   69.967880   75.297523
H   22.622976   71.515381   96.919983
H    9.537577   24.323334    4.093576
H   89.730934    1.398609   40.244133
H   25.284050   25.231459    9.096859
H    2.225557   60.951714    0.590012
H   22.596531   92.654099   94.173882
H   97.119270    7.517130   13.430367
H   40.019367   84.513954   70.578239
H   99.841370   92.774925   50.660851
H   50.320633   62.211533   44.294128
H   28.836966   96.474174    2.927281
H   83.150269   12.342175   21.987041
H   47.081715   62.915936   92.778816
H   23.552135   67.072136   35.741730
H   68.889671   20.882854   50.936680
H   76.588242   36.254349   65.986305
H   59.960136   47.391495   49.352314
H   56.444935   94.970642   80.542091
H   44.240536    0.730245   93.857956
H    1.430973   24.832954    5.195686
H   10.380512   63.014393    4.481562
H   82.734665   10.241654   75.842003
H   56.519688   49.422668   93.294456
H   18.435486   97.811218   35.128906
H   35.944057   10.609266   16.612694
H   43.144230   62.982986    8.749291
H   60.175301   76.764709   29.540489
H   17.730579   52.438416   98.072899
H   55.157661   21.576515   63.396080
H   22.941582   18.514338   44.984867
H    0.132068    7.013336   13.972504
H   28.952362   38.118065   55.115944
H   35.278214   81.278664   78.378525
H    4.176115   60.509979    8.590786
H   12.705727   31.166889   14.344978
H   90.748169   34.515972    5.221286
H   12.654936   79.094437   57.900581
H   30.346678   49.169235   73.599335
H    3.409817   70.351227   84.656464
H   40.624748   41.695164   84.292198
H   78.953117   81.379509   56.486046
H   66.511627   29.800121   20.435867
H   17.850700   17.676020   17.087347
H   18.460966   72.698524   31.087181
H   36.710190   12.100842   90.682343
H   55.385185   38.326508   99.193123
H   41.245422   77.353973   40.855881
H   64.811951   58.717102   27.189232
H   14.681087   17.273468   91.335655
H   15.198924   36.122005   99.231537
H   49.726021   43.920639   42.805431
H   43.439487   71.685249   83.861916
H   78.540909    7.566098    4.266051
H   13.174621   38.103695   76.236412
H   42.154015   23.134796   68.801361
H   13.566942   83.574631   93.650032
H   35.089676   78.500992   47.943260
H   49.823357   94.884460   29.736654
H   11.204367   61.241867   84.093231
H   96.794548   20.618919   39.017586
H   30.508488    1.821089    6.220222
H   17.656790   21.780579   73.788391
H   40.430008   85.127411   41.166664
H   64.594345    1.972473   85.268929
H    2.344412   93.357590   11.821495
H   38.792473   56.807323   44.289959
H   66.597755   90.179367   33.522850
H   21.860231   84.987068   24.840473
H   54.466461   31.563185   80.663765
H   65.856483   79.645988   36.678623
H   27.384903   88.494293   96.382706
H   46.040550   68.852669   35.371933
H   26.128698   60.921265   72.054085
H   58.710449   59.472363    5.461243
H   65.182983   43.961170   92.183914
