100
TIME:    9.420, STEP:  9420
H   80.286041   58.162666   90.521744
H   40.318192   15.319242   72.067131
H   41.692020   51.616203   12.763634
H   83.057724   44.547112   23.819876
H   10.787935   27.811523   10.291441
H   81.941895   91.002708   11.639686
H   59.266369   97.420616   27.109447
H   79.492874    3.552342   43.280998
H   22.066292   80.597305    7.131397
H   17.464621   51.642246   76.551826
H   24.029572   45.275116   32.365166
H   96.304482   95.866707   22.402958
H   43.067581   91.808769   88.973923
H   88.659805   76.040810   74.106880
H   95.021309   28.591988   97.893822
H   22.765572   87.821213   51.098694
H   66.606636    5.031464   30.928114
H    2.508007   36.461601   72.981522
H   91.987427   73.535034   59.642231
H   38.723759    5.769667   57.689995
H    5.280210   18.426744    1.568802
H   65.484924   56.589172   17.078232
H   59.971626   18.016535   62.833298
H   43.804218   49.518768    7.462600
H   92.671860   39.107697    6.105842
H    3.189333   48.401901    4.417606
H   49.782303   50.899769   86.873215
H   37.709473   96.133469   78.148460
H   16.000210    3.748373   11.883850
H   62.197563   57.694504   32.251076
H   86.791969   66.764481   64.098679
H   60.541859   92.248138   27.207466
H   33.889481   79.270569   46.424950
H   76.119339   10.435877   74.902016
H   46.518044   46.443794   98.172363
H   91.502274   23.247614   89.811897
H   83.299347   59.554451   50.724445
H   74.644707   86.563332   87.184578
H   47.451832   76.171715   31.444038
H   75.934189   30.314156   79.181168
H   91.461624   79.404724   64.275597
H    6.347559   78.543701   60.867039
H   92.355682   19.996761   81.888908
H   77.850502   70.763710    1.772033
H   39.540665   60.240108   62.208904
H   56.532516   42.582897   21.431128
H   15.338902   37.131359   15.893372
H   56.762569   92.392944   51.433384
H   40.385223   52.285114   68.708252
H   23.509260   74.116936   24.886127
H   43.733570   60.270477   51.381424
H   62.941113   89.632950   55.671761
H    4.262190   76.629089   55.774796
H   58.542267   53.511192   47.494331
H   90.760109   84.128754   80.460358
H    5.328358    2.624798   71.947754
H   93.439590   17.736641   51.907875
H   24.623121   87.284096   70.917381
H   33.214397   36.798538   88.312004
H   37.395725   51.841503   95.683388
H   53.924259   40.497387   79.942711
H   64.583702   40.262039   69.131706
H   13.584044   64.479149   87.512787
H   89.894409   93.077728   71.388779
H    6.218085    8.482761   72.812141
H   22.663795   73.977531    3.168364
H   31.784733   74.034363   21.859989
H   29.662064   56.277473   16.533081
H   26.393259   72.925217   69.427979
H   21.340286   21.787104   81.863953
H   22.897552   54.462070   49.156624
H   97.553535   38.819725   46.527546
H   92.790375   52.357502   20.219814
H   22.839458   53.227413   43.448769
H   16.241766   42.185688   15.532183
H   48.354012   11.305991   62.081535
H   22.319851   10.474773   57.810532
H   74.540764   34.777397   34.681564
H   13.237628   25.849209   22.784510
H   37.559227   95.866707    9.379808
H   95.227730   26.736582   43.003990
H   48.164688    5.566162   98.927071
H   13.708998   64.653969   27.056156
H   98.230461   18.248974    3.046614
H   93.655838   59.641266   34.590210
H   34.490139   55.067810   95.936462
H   96.295341   18.441429   72.725105
H    7.528020   51.278725   97.908844
H   51.177006   69.681786   51.147346
H   33.484104   21.711411   60.956642
H    9.528254   82.082474   32.395287
H   75.283508    3.953819   13.016664
H   89.293762   10.160727   47.467644
H   56.791969   84.605942   63.323284
H   93.723434    5.942691   32.546089
H   71.974960   23.746344   80.893555
H   14.887233    8.273215   95.434921
H   20.094530   52.561031   89.770226
H   59.965935   77.480034   56.014675
H   24.324211   36.902271   90.281250
