100
TIME:    6.480, STEP:  6480
H   79.106522   27.773241   93.213394
H   21.513542   56.006939   86.690346
H   91.151917   40.100685   47.278324
H   82.564255   65.674347   84.972168
H   37.130280   92.158005   90.006500
H   27.532116   94.187828   20.482029
H   13.353929   98.897316   97.197517
H   10.571075   49.203640   13.221200
H   94.337105   63.267807   92.193672
H   97.767555    9.427320   61.435947
H   97.501221   26.979208   15.563450
H    8.515907   48.499454   31.675030
H   30.564560   69.732048   81.136162
H   34.229500   85.102699   50.371716
H   59.312080   91.207298   39.279110
H   40.977661   44.964577   95.144043
H    3.023984   10.573234   63.288307
H   39.638996   79.522339   74.894081
H   46.193233   50.198616    4.754796
H   17.935768   68.199745   57.521141
H   79.744339   11.112339   81.363914
H   83.624252   52.686279   67.446426
H   99.224861   41.920799   46.950577
H   16.972179   14.347872   25.811960
H   97.823067   72.264206   84.396156
H   17.006826   35.094589   81.066780
H    3.300857   73.112503   28.540495
H   85.778122   58.904198   80.967880
H   52.072380   37.007977   50.858673
H   49.464710   30.460014   98.530472
H   71.085823    3.130216   96.702034
H   74.908447   73.474274   99.378029
H   26.799236   94.375145   81.566528
H   51.897499   79.869431   98.760040
H   19.687012   69.043129   19.298975
H   35.932613   92.969826   99.053230
H    1.315742   67.223755   19.063818
H   96.163155   40.366741   79.716805
H   71.550903   40.227409   16.352186
H   52.849323    5.546967   47.867802
H   92.389969   78.526741   95.011696
H   54.114899   67.014465   10.775861
H   67.054169    2.359443   69.530357
H   65.572342   21.409323   14.316079
H   94.563927   76.223251   10.621184
H   94.480370   86.512924    9.486929
H   92.359665   77.242203   87.666466
H   56.585484   62.111877   69.523605
H   54.444641   95.777016   85.984390
H   61.788647   29.362516   30.449938
H   43.056644   44.041595   21.735893
H   20.051411   62.444740   48.664589
H   43.287586   59.581970   26.519995
H   26.630440    1.472867   17.760769
H   24.847946   26.480885   55.465214
H    1.666591    5.717392   72.032303
H    7.056633    2.568617   72.289345
H   43.541168   64.931496   46.646103
H    1.341544   12.565810   14.013523
H   31.405670   25.862331   79.303978
H   68.463982   77.220840    9.164860
H   68.930061   67.627151    2.153137
H   13.987223   65.099525   89.117401
H   88.009750   77.062408   51.209751
H   89.524994   43.297565   99.022758
H    3.270815   20.132927   29.332014
H   67.665939   72.390961   79.916275
H   32.747963   88.134987   75.984070
H   79.864906   84.174866   53.819439
H   61.665634   74.068291   88.088104
H   16.262932   54.502090   84.417244
H   39.661449   36.466522   31.056713
H   84.482773   97.780365   95.599182
H   87.559380   39.300060   18.133909
H   74.596794   37.879696   92.625626
H   78.850014   22.879581   59.906471
H   55.305264   64.941307    5.665343
H   36.422512   27.008570   72.306923
H   72.251366   34.484921   89.978355
H   81.739975   56.023537   62.663383
H   37.676201   96.320236   67.283478
H   27.551310   86.494583   44.887432
H   27.749435   15.486545   47.066345
H   95.963585   66.666771   71.568535
H   36.807487   43.557968   19.588928
H    2.150698   47.076134   91.773956
H   99.939262   32.204002   32.534859
H   60.245232   86.537842   28.390305
H   90.160751   33.375633   75.192757
H   93.419388   42.671993   55.859680
H   89.210930   23.333603   70.307541
H   57.753277   82.837479   56.993187
H    0.834092   21.951092   20.112925
H   73.533455    6.307152   63.735443
H   44.557411   69.291489   64.989655
H   29.143051   39.842926   32.748672
H   48.250206   39.553467   64.518616
H   25.769426    7.089969   48.794624
H    0.020989   64.784416    2.268382
H   41.708355   12.348019   73.502098
