100
TIME:    8.967, STEP:  8967
H   10.920716   99.705177   90.936478
H   52.829330   90.772156   43.503307
H   33.905392   19.025719   18.081394
H   82.981689   63.210136   48.651497
H   14.847143   91.501846   22.573151
H   88.964722   91.493477   66.778839
H   83.009193   66.833992   91.684242
H   15.097778   64.360245   84.873619
H   33.201897   24.151985   35.646313
H   29.839243   45.137836   58.815041
H   66.166534   27.048031   76.002083
H   13.594688   73.160027   54.648003
H   71.953796   19.227661   33.991837
H   11.089564   77.437080   39.633137
H   89.519173   69.056190   19.678207
H   40.980179   27.442467   88.701233
H    3.034146   75.067421   89.689735
H   92.817917   58.504707   88.686111
H   84.930038   54.531590   35.777752
H   50.927303   15.389765   26.847620
H   32.162224   63.525078   13.864885
H   22.055368   55.987808   55.655396
H   66.019829   21.699026   75.793732
H   85.894455   44.099579   41.106838
H    8.873616   75.032959    2.761970
H    5.326159   61.756332   47.047710
H   88.844582   69.731094   77.887314
H   75.931732   74.988953   63.176376
H    6.149498   62.648342   33.296318
H   44.827126   68.906143   96.239807
H   68.965324   26.144272   99.938599
H   31.939045    4.765041   69.143974
H    1.979544   12.414162    5.615132
H   56.979370   51.950623   93.986687
H   57.791893   80.742287   70.613297
H   52.123295   87.765976   91.235817
H   39.850983   76.143806   15.029708
H   93.369942   94.851097   55.216454
H   66.574059   86.042381   75.343597
H   18.602621   72.723442   43.539719
H   22.420366   63.859146   53.603115
H   44.524033   76.767258   37.742168
H   88.457184   17.278526   49.167973
H    6.772018   63.159874   57.479092
H   78.834549   78.108955   23.442038
H   62.376808   33.942608   19.590746
H   11.797248   12.494078   11.542986
H   56.734921   87.727188   23.404285
H   27.144844   89.803627   86.776825
H   14.001305   67.218529   56.561039
H   42.885876    3.937176   47.954666
H   40.925655   31.667599   85.408180
H   94.867363   74.002441   82.083725
H   69.033234   60.903824   27.504547
H   26.829319   44.430107   76.610245
H    4.764147    3.101310   87.368942
H   64.719269   30.807671    8.823791
H   58.354431   30.065039   82.585228
H   97.486549   17.656408   23.088587
H   67.288048   17.021137    8.567772
H   25.346041   61.562412   15.258789
H   80.661552   44.478500   89.626472
H   82.830673   95.390648   18.576355
H   58.788792   90.610062   83.685638
H   88.238739   44.664837   30.626734
H   50.491859   96.497581   76.383385
H   68.129257   58.372486   99.988083
H   60.953735   30.370323   94.877060
H    3.814842    5.474892   97.837250
H   12.140105   99.034744   82.824753
H   37.284267   85.284782   54.589638
H   34.856750   53.860741   13.323739
H   22.326691   74.765160   31.835819
H   32.810352   81.898048   70.364998
H   94.421127   41.518658   81.185669
H   37.643509   82.273918   92.564255
H   81.177567   49.684406   49.775063
H   53.259747   64.396309    9.662742
H   91.514183   27.179813   17.728212
H   59.775139   20.544386   48.406120
H   86.359337   22.050089   15.928777
H   14.172928    2.625440   36.824860
H   85.056862   57.078159   83.914833
H   67.063210   79.484718   44.419994
H   15.712769   87.980881   78.503616
H   44.917240   38.426613   64.478897
H   66.040504   51.378212   51.124382
H    0.243046   87.526466    2.604100
H   41.776371   94.904518   54.852303
H   73.536209   40.350243   44.764740
H   90.989250   57.620991   22.828758
H   41.766094   69.883560    4.386562
H   60.255482   96.568748   12.436458
H   13.891420   57.190418   31.428587
H    1.555270   46.520924   22.137907
H   34.559052   41.634399    4.291613
H   50.843864   82.276588   21.488018
H   20.968927   30.147980   98.866722
H   81.545921   75.523872   93.956642
H   96.187012   48.525188   33.920559
