100
TIME:    0.774, STEP:   774
H   64.979897   51.041542   98.437393
H   79.739998   46.710758   26.823851
H   93.062836   29.588245   14.251839
H   81.606522    0.760283   97.737053
H   88.238403   34.797035   44.718437
H   16.014114    0.371252   55.398014
H   12.405684   13.601103   50.980579
H   59.051422   55.561947   37.128113
H   34.601601   11.876520   51.367279
H   53.688362   27.498047   37.999596
H   28.259430   97.386276   65.192924
H   26.298672   62.487312   37.834404
H   94.028564   14.879496   48.199265
H   16.757679    2.690847   16.141346
H   89.915962    0.887919   13.566395
H   70.403229   44.037815   68.791489
H   61.838097   33.182846   43.825722
H   17.684113   57.061066   72.713181
H   57.316711   10.822314    4.141198
H   71.697914   89.304138   68.991875
H   18.346283   79.163483   36.236267
H   36.564075   45.121529   53.351589
H   75.410011   88.327324   10.204435
H   47.128555   45.964664   49.591461
H    1.901955   24.790485   42.273376
H   43.109989    4.547502   16.626425
H   95.335663   10.302133   15.325323
H   67.232170   92.566895   92.357620
H   28.001083   19.315355   20.584755
H   30.671225   71.683334   44.919064
H   46.548710   91.451332   48.163872
H   14.627855   31.127357   27.611000
H   24.876961   11.852926   67.524986
H   10.805362    2.790308   39.143242
H   61.532845    0.411548   71.858795
H   39.851654   45.287060   17.981108
H   54.035114   76.190285   69.453499
H   31.999847   44.787792   77.059914
H   15.923698   63.985374   67.943436
H   90.291298   39.723980   98.930412
H   82.347031   82.738777   60.578526
H   62.058464   46.596230   39.163868
H   17.907751   68.141388   57.379036
H   29.933733   25.742582   56.410408
H   89.516685    1.354135   22.340906
H   68.066216   77.754448   86.353539
H   44.252796   67.495193   34.237007
H   56.280750    3.352472   16.468626
H   87.655388   68.345627   13.598325
H   42.123043   42.530170   29.530266
H   43.485569   94.918480   61.577808
H   42.747307   91.917450   23.249977
H   24.934923   26.496643   57.918427
H   58.765942   94.574654   65.971024
H   79.142014   26.357458    6.973997
H   94.534683   11.718508   66.278015
H   45.319267   67.213509   29.601387
H   68.424988    3.792515   93.618240
H   51.319870   71.471832   52.063679
H    7.943462   87.279816   41.595177
H    8.524878   42.576012   54.047699
H   71.440369   20.741074   60.335625
H   26.732513   54.372719   80.458595
H   96.188118   46.004852    6.124624
H   63.045677   99.025505   67.643196
H   53.797249    3.795297   91.950783
H   25.469439   75.120453    4.430459
H   26.900459   61.803085    3.204276
H   95.477318   94.171631   11.687689
H   46.065163   87.073387    0.103160
H   97.453407   42.739643   52.864506
H   10.147625   25.838112   13.289839
H   56.525711   80.020821   41.902531
H   13.154849    0.398746   57.207481
H   99.490402   29.745008   60.072437
H   43.957699   57.179878   43.848980
H   37.229038   59.460564    4.729774
H   68.344254    0.110275   57.186604
H   98.651054   51.235203   26.318832
H   61.567123   66.802162   54.240356
H   26.028454   37.289043   26.248470
H   99.396492   49.282364   22.056622
H   66.768486   20.175859    3.619604
H    3.413133   78.393776   92.733742
H   14.641867    0.468771   72.721870
H   33.478237   37.484737   95.532036
H   18.848440   47.076820   60.450405
H   68.415039   43.325569   87.694984
H   71.745308   51.076805   21.867828
H   97.904312   77.436356   51.882610
H   55.697819   15.225969   49.807201
H   35.555119   53.718102   48.270363
H   34.944664   50.821457   78.793449
H   22.037531   60.182861   79.004875
H   43.210575   80.399597   33.871269
H   57.850815   65.166618   27.471016
H    1.166248   12.098561   92.675385
H    9.707019   22.827820   43.651962
H   71.840508   40.186703   80.216927
H   87.309464   58.824047   23.138792
