100
TIME:    4.696, STEP:  4696
H   99.751625   91.374275   94.846695
H   70.783333   59.334641   74.204468
H   60.474648   11.753207   68.222664
H   82.264816   39.175835   82.759651
H   53.109406   49.162613   38.375992
H   55.202953   96.120567   43.806973
H    6.853657   78.434494   57.686321
H   50.789955   94.866119   77.023201
H   38.191292   34.792221    4.489811
H   46.510490   83.810966   91.579163
H   63.444550   55.196247   87.406906
H   76.608421   59.076836   58.662514
H   44.405594   77.613594   58.403809
H   22.562702   90.601479   14.607226
H   37.621956   50.561584   25.039391
H   12.707855    0.999606   43.232361
H   46.482796   92.575119    0.883753
H    1.488873   66.324730   36.738232
H   18.410179   75.357269   10.766680
H   65.996208    6.091211   36.058113
H   85.609428   88.715485   29.787079
H   12.590439   50.317993   19.370468
H   23.045662   56.429955   97.991226
H   82.732193   93.002808   58.308144
H   61.628082   13.742767   71.220863
H   25.139303   87.830444   48.827290
H   57.138329   47.270687   93.142494
H   36.307102   75.633118   21.996027
H   13.281247   75.149925   35.189003
H   81.059067   74.613579   56.706978
H    0.871190   43.154774   37.846367
H   62.265514   22.767273   64.531807
H    1.136542   24.900328   20.849722
H   76.518494   43.362305   73.916344
H   64.041458    3.938438   10.682739
H   80.853073   53.239674    4.663680
H   30.206839   32.559067   78.491806
H   69.896095   73.015388   53.824230
H   46.853954   79.099968   89.235260
H   20.883070   72.560112    7.505434
H   14.313503   17.315565   52.981426
H    9.571022   22.616476   23.422564
H   51.690235   91.660461   40.670776
H   79.487808   91.468353   39.885353
H   49.312016   46.610237   57.960102
H   17.502865   52.485828    2.237605
H   78.422165   80.222008   70.544029
H   56.490208   43.737244   59.139793
H    2.301328   43.526516   57.150452
H   24.366848    2.207472   55.218834
H   43.186344   16.274990    2.930153
H   33.348518   27.985300   65.779602
H    6.280528   49.237732   30.132277
H   67.940636   30.584755   39.037193
H   66.892456   70.135506   40.289127
H   99.441971    7.593987   32.763885
H   93.958420   54.045677    2.616049
H   76.381729   33.408745   92.596298
H   60.639114   37.187103   50.969200
H   49.130444   88.737976   30.045174
H   55.928101   60.184612   48.258110
H   32.244408   84.232376   82.875366
H   92.871681   86.836227   11.451653
H   65.506752   67.344269   99.640717
H   18.713976   85.782501   32.887531
H   12.862747    8.820826   23.847494
H   10.799421   10.716336   93.784470
H   55.980949   86.106094   90.698555
H   90.949600   12.361710   65.709106
H   25.527636   84.337891   91.844696
H   72.913139   75.884003    5.814986
H   86.760406   95.673676    0.440448
H    0.802838   86.023170   41.343834
H   26.831203   52.208134   24.132896
H   88.584358   35.334469   57.386806
H   36.674812    8.541849   79.947800
H   93.321152   19.527927   74.099831
H   52.606945   43.660809   73.783272
H   86.703285   39.725094   70.079308
H   69.224457   53.200443   16.356499
H    2.765433   77.863937   60.657726
H   93.671333   74.896011   94.100487
H   14.906427   85.653015   77.167572
H   73.226349   14.005756   34.509804
H   23.673220   55.148399   92.527962
H   43.214359   81.547096   67.887680
H   80.789940   61.915466   47.466980
H   31.544008   29.321058   46.906837
H   53.139267   32.705864   89.783577
H   51.149632   16.068581   92.088440
H   16.202385   27.002708   32.632732
H   25.755194   48.663300   23.006838
H   86.476295   68.423286   82.153427
H    1.113337   98.079361   43.445507
H   75.399574   29.090523   23.995136
H   81.791916   10.291990   24.894646
H   89.856224   37.174328   67.117661
H   24.103003   56.221313   80.889656
H   85.006592   57.092907   51.698486
H   30.897615   58.124195   45.360020
