200
TIME:    0.147, STEP:   147
H    6.613441   62.783642   13.749334
H   27.135372   31.520411   86.121750
H   20.086958   65.067558   40.767448
H   14.707645   75.886757   46.931622
H   16.197565   81.372177   54.995617
H   92.644043   55.339161   68.302422
H    2.011850   55.370117   47.851276
H    0.804543   84.870422   28.373436
H   83.651627   88.900459   49.988152
H   14.134991   76.201591   99.740746
H    8.952083   92.607491   90.022781
H   30.393234   39.540539    8.310972
H    8.891604   83.921410   65.103294
H    8.799599   52.814564   37.784389
H   24.111977   71.228668   43.207417
H   32.011162   29.798203   56.329212
H   79.832428    3.362892   19.947344
H   38.770603   78.696266   45.176064
H   61.931149   33.068775   41.114788
H   89.760376   80.981834   41.075863
H   56.968979   72.115776   30.101223
H   92.099449   45.259605   74.158546
H   97.790131   63.217644   51.367691
H    6.648530   87.226967   91.878540
H   99.204208    8.963573   48.728840
H   18.738077   58.209274   10.028120
H   97.094963   56.930683   45.342621
H   92.376007   66.292984    0.486566
H    7.151622   59.356514   38.882931
H   97.251991   18.272995    1.842855
H   13.482911   47.563847   16.081110
H   33.617226   61.326645   91.313461
H   29.370392    6.984387   72.043190
H   99.504509   63.476456   36.664757
H   52.451405   93.643845   34.926495
H   36.099125   52.042393   78.410049
H   83.595200   76.436272   85.256752
H   37.515167   42.349640   19.348902
H   56.512199   49.730812   42.364407
H   90.974632   40.070927   67.329193
H   80.476639    9.568129   98.437248
H    8.710314   45.057041   42.588741
H   78.376358   89.918335   46.874981
H   37.488449   58.717419   15.422219
H   25.599537   73.457726   41.007820
H   42.368526   16.258814   41.676437
H   78.221603   30.768452   94.139809
H   92.379944   65.552025   50.990982
H   83.483742   32.281384   61.099281
H   65.445312   17.381815    9.647031
H   80.420563   71.673233   31.554405
H   24.693235   34.097271   61.541821
H   49.668919   97.083694    6.711507
H   23.790716   80.221130   80.325958
H   81.135391   78.453224   93.781067
H    6.497849   74.641144   75.602905
H    5.695894   16.393532   50.652195
H   66.392624   56.417446    6.981975
H   30.143555   72.680923    4.877175
H   45.254242   96.511391   68.713432
H   50.720715   17.190861   44.953663
H   88.265739   16.204573   48.353455
H   68.885185   23.279907   88.022476
H   21.872736   65.019653    1.591098
H   69.853386   74.692642   14.126636
H   42.387768   12.948077   31.191635
H   89.649025   25.123671   83.913704
H   97.862221   91.238487   85.430313
H   13.214538    4.596486   63.156921
H   45.772308   40.009056   50.987560
H   58.505962   74.983620   70.793716
H   34.754059   26.266354   45.415825
H   74.542130   24.055294    2.609753
H    4.835566   11.008859   57.865402
H   78.012619   99.366051   71.985573
H   50.963074   22.359970   63.485188
H   95.820663   26.488028   73.461052
H   29.999849    4.276459   51.147667
H   10.823509   25.549927   36.998234
H   69.677422   91.185616   98.672089
H   39.420963   31.673843    2.514064
H   22.547239   70.262619   90.732262
H   11.362551   12.646169   93.000778
H   27.706791   58.818535   90.820404
H   42.219967   98.340439   60.417759
H   22.047083   89.028244   29.718784
H   31.687063    2.590318    1.558120
H   76.104881   22.005627    7.934433
H   62.843266   71.819359   76.827881
H   23.909939   81.878647   55.888653
H   45.141327   34.089958   81.168144
H   84.703232   87.719498   96.338577
H   42.841782   17.910967   98.378517
H   64.198166   97.774841   66.551056
H   22.768362   58.184204   64.066437
H   73.123421   25.630009   33.434303
H   78.044044   17.495844   94.323906
H    9.451321   26.993567   47.713039
H   39.125221   70.709648   52.551670
H   65.587402   96.416077   27.227701
H    5.716959   77.855042   64.560555
H   87.114037   75.249565   66.377594
H   21.251593   40.568619   29.203154
H   17.407082   67.767776   86.469246
H   25.462021   28.694904   22.072372
H   83.741333   31.326138   48.244823
H   61.252811   28.942015   56.692047
H   65.298958   30.703648   22.337700
H   70.433105   41.263577   94.635567
H    1.379258   29.357061    5.082098
H   45.970951   96.874939    0.730418
H   82.259682   61.006321   89.451828
H   58.709293   79.195457   95.958252
H   63.539207   21.402311   77.352203
H   66.953758   78.095932   30.033499
H   17.833836    8.518019   74.738914
H   36.398617    7.133148   83.095932
H   41.242954   22.418922   35.837486
H   15.330461   54.221996   88.136017
H   68.328354   44.818722   45.873493
H   39.583931   21.141430   90.567276
H   22.301865   29.683132   45.452557
H   29.994268   25.744869   21.270306
H    5.447510   70.665695   21.937750
H   79.699165   11.254710   95.888962
H   44.315166   59.807686   27.327038
H   97.698296   48.755692   74.646423
H   77.462906   86.840569   34.217121
H   91.323242   55.850052   87.009644
H   63.237526   24.590143   64.917221
H   44.854813   88.506317   99.857307
H   85.269669   85.128983    7.133834
H   92.741432   78.070038   96.683357
H    5.480844   10.618480   48.562260
H   99.831810    3.051689   60.690407
H   64.835060    1.746207   85.051712
H   68.738747   86.327538   50.708954
H   90.425087   67.124336   84.667816
H   43.882370   43.033058   71.572083
H   43.397568   13.550325   98.041611
H   46.013493   65.803795   11.905867
H   61.519623   38.185108   44.078911
H   57.995121   55.049240    2.521034
H   61.974541   29.894255   76.583321
H   35.930500   72.851418   46.027485
H   42.532597   60.373249   34.300266
H   42.531700   97.185066   47.947792
H   45.191864   76.880508   69.358543
H   62.699070   68.674850   98.868980
H    6.487301   87.644295   93.476395
H   79.498268   59.730526   52.046280
H   29.872612    9.682987   51.066738
H   71.855400   35.316013    6.729475
H    7.451446   99.007912   78.250702
H    9.924736   51.422989   59.070553
H   60.741302   43.298306   51.199764
H   58.337780   58.094765   79.654587
H   44.723850   38.152046    7.545323
H   16.638220    2.084753    6.053737
H   64.722092   60.738403   74.672119
H   53.042423   88.187653   85.888611
H   47.970577   23.538252   36.349651
H   61.216167   38.624577   37.270721
H    7.861024   17.447601   75.177856
H   59.844650   18.932711    8.910754
H   10.311391   67.398003   62.810204
H   76.501251   99.071175   51.235802
H   23.550972   26.701260   44.167042
H   92.809280   28.472649   37.076534
H   22.228878   11.161531   91.450623
H   81.141663    4.527833   35.983879
H   49.375710   68.901123   57.172527
H   35.876049   81.450333   93.040787
H   72.368095   76.773636   72.089828
H   75.760345   95.736145    3.604015
H   98.035942   47.158501   23.197521
H   36.373131   50.015965   83.017593
H    0.905767    9.112167   63.691021
H   77.979927   23.541513   70.222557
H   90.724472   53.457497   85.073074
H   83.115730   81.856735   43.881603
H   17.351837   29.992519   66.221046
H   69.916473   90.262253    4.229366
H   49.455910   25.048100   73.768913
H   84.320305   92.368080   78.779984
H   97.313469   35.439026   83.488747
H   28.113892    6.117603   97.204666
H   94.888985   63.285286   22.272448
H    9.311590   60.758682   65.480530
H   47.922398   58.779209   64.528030
H   43.377525   34.101238   79.965584
H   48.415310   82.401840   25.808954
H    2.034729   15.311521   55.675838
H   36.728397   59.819157   31.438995
H   88.086090   58.409302   22.120497
H   75.101089   10.155242   30.840517
H    8.843099   83.023537    0.327776
H   31.612282   99.254517   49.589504
H   13.153486   11.351673   82.176353
H    8.977757   38.143425   99.040855
