100
TIME:    1.469, STEP:  1469
H   17.979956   87.306595   97.801102
H   60.407341   84.392250   70.664330
H    5.005495   79.590019    6.091249
H   81.723175   72.127098   59.643795
H   82.013351   90.504356   25.873604
H    5.236757   99.616615   24.225439
H   75.979210   60.532833    5.330541
H    4.425797   15.689648   73.315926
H   17.517174   45.055084    7.618159
H   34.695061   37.476021   65.216728
H   63.612228   25.350681   98.248276
H   99.770706   97.324272   88.364372
H   49.818611   72.830788   79.121941
H   82.345528    0.548115   69.032570
H   98.368034   38.809284   80.159500
H   42.459427   83.246941   11.101172
H    5.962108   79.144302    7.104743
H   32.536217   23.263382   48.618942
H   68.140999   39.980370   40.754543
H   52.939247   74.617294   16.348948
H   77.104095    9.973244   17.373470
H    3.205071   46.038849   94.171974
H   66.130760   82.674934   90.319641
H   82.555489   54.300083   97.972855
H   77.044304   69.668800   47.400826
H   39.923229   83.837006   51.482742
H   35.405075   81.413223   29.116941
H    8.592316   25.007656   15.329333
H   43.113007   82.371307   87.732414
H   57.321102   54.482254    0.170365
H   73.888039   53.777359   93.168549
H   58.510715   11.926980   63.271385
H   73.832840   61.003151   30.136076
H   40.170448   39.097572    9.864954
H   44.257530   47.875069   14.181023
H    0.278148   99.880875   15.589520
H   20.695564   50.738625   24.216619
H    3.276001   32.067265   26.104893
H   84.679886   49.149178    1.329570
H   24.830389   74.660912   53.612713
H   34.851128    6.588200   76.953537
H   99.595825   77.788078   71.816223
H   23.894194   72.309097    7.581233
H   85.554070   37.390594   24.365389
H   29.231003   73.930161   81.816238
H   59.135380   90.935707   89.136238
H   51.591358    4.983982   40.175728
H   56.317867   10.508131   59.471325
H    7.972432   10.787361   85.875320
H   56.699421   53.108517   80.920738
H   43.432545   27.821375   68.905762
H   76.523781   27.426485   77.625259
H   39.352226   30.526489   17.551983
H   42.673069   83.238060   96.640274
H   23.812614   87.285400   12.871624
H   95.404282   10.988098   42.618576
H   89.380203   47.159721   95.701469
H   16.672493   38.159065   75.717239
H    6.134590    0.836729   98.707047
H   62.078457   40.700520   21.827721
H   52.366558   10.257470   99.861778
H   46.773468   14.271755   28.886917
H   73.875000    6.978221   32.779152
H   43.913170   49.785484   87.256859
H   90.629097   43.517719   32.365986
H   11.102242   69.244728   33.044094
H   69.707901   99.151062   37.986340
H   78.891823    1.550183   36.429295
H   30.116905   44.233353   68.100624
H   60.143112   22.029131   98.639832
H   75.384697   95.449577   44.529087
H   52.840710    2.771784   64.176262
H   11.209934   45.642704   24.081066
H   97.859154   56.419449   15.901558
H   32.998581   30.733912   12.757923
H   60.389927    1.721214   97.085075
H    0.330206   99.223618   17.027308
H    0.996618   54.667358   95.566528
H   31.965845   49.199070   34.069038
H   27.483109   28.948725   94.365608
H   39.629185   44.479137   67.787331
H   51.544209   53.821243   63.940628
H   10.746070   31.774923   69.814880
H   51.224850   37.865826   29.253059
H   80.801071   56.998550    5.349415
H   17.480808   63.015934   43.795158
H   65.265907   96.544647   93.590591
H   79.603165   87.683029   80.473076
H   86.167915   12.380897   16.180973
H   36.458984   48.837868   76.729790
H   84.140053   52.752445   64.484329
H   86.978081    5.989152   61.510529
H   79.538094   71.646042   32.561264
H   89.212013    2.337823   25.866177
H   31.195091   18.145172   49.842186
H   15.255005   37.721245   91.573013
H   45.999802   51.983303   52.705673
H   12.258813   28.745331   32.532768
H   38.732140   43.182575   22.000080
H   30.471268   40.970768   56.200264
