100
TIME:    6.667, STEP:  6667
H   66.460281   10.624947   93.042191
H   16.349613   66.140465   98.480568
H   94.367691   53.554436   45.082638
H   82.595642   57.970184   74.722778
H   35.455338    7.146798   84.936020
H   24.631641   93.985237   39.001537
H    3.553511   11.524666   11.821238
H   95.873238   65.381073   96.051506
H   89.740288   45.288574   80.423424
H   92.659981   12.112720   68.757759
H   80.106934   34.503605   97.550606
H    1.378172   57.872852   18.364662
H   18.631668   58.423344   62.554863
H   24.970779   84.526314   64.602959
H   61.583382   74.503532   30.286640
H   33.458969   28.608925   79.621582
H   87.986549   22.941425   80.311653
H   43.638027   70.422867   68.411171
H   49.105122   58.044022   14.606196
H   12.898102   64.227821   70.252983
H   68.647491   92.496002   76.287727
H    1.552124   52.934525   51.521637
H   96.728142   40.399940   41.600464
H   99.597145   16.584932   11.923676
H   91.134712   57.434486   85.777199
H   16.154375   29.566139   63.481361
H   87.176170   65.339859   32.251331
H   69.998856   67.632729   87.148331
H   56.138466   53.974255   42.018860
H   56.635288   25.831810   13.396088
H   78.444725   19.898670   81.907188
H   86.715790   68.306778   82.066490
H   39.971645   80.693123   98.412964
H   59.798546   62.731949   90.881821
H   15.033052   54.884590   30.676882
H   52.188396    7.616553   98.465431
H   19.251392   60.375610   33.798740
H   88.433311   36.944096   92.913750
H   63.658352   36.152763   98.230865
H   35.236752   88.041061   62.581326
H   79.609619   84.944023   99.417336
H   38.355606   67.747787   20.322601
H   68.663483    3.481272   83.038322
H   53.632130   24.548056   32.599854
H   78.342384   68.844376   26.623728
H   92.066399   90.079666   10.246645
H   93.820602   87.411697   89.461250
H   56.595470   64.037918   81.094116
H   59.910316   80.288795   78.525620
H   65.714111   32.209438   17.374975
H   43.043804   25.987936   23.706875
H   29.141609   45.091827   36.389290
H   47.166775   60.666260   15.659266
H   22.300415   98.422058   26.012070
H    9.958225   42.869110   57.055981
H    1.899500    5.520686   65.666382
H   18.911325   97.172722   90.074547
H   29.616732   47.271843   41.829575
H   16.089661   20.468128   99.657829
H   19.066170   40.236301   73.985252
H   80.259911   68.523697   94.584702
H   62.293068   65.886581   93.692520
H   26.682684   52.339149   76.294250
H    0.850078   78.081070   46.132137
H   96.946671   28.361652   16.437689
H   91.783234   10.836769   40.388916
H   52.662796   78.856750   88.944412
H   19.830650   98.829506   84.923752
H   89.184090   70.738235   42.090565
H   65.454063   83.473076   87.694336
H   10.324648   41.778809   82.174477
H   24.242777   30.260391   44.748672
H   72.290222   88.529663   90.805481
H   83.441933   27.465336    7.023492
H   83.613518   38.146488    6.801544
H   83.269920   34.864719   47.324432
H   72.288666   48.755512    8.981825
H   45.208111   14.781065   82.633354
H   81.219582   33.935642   92.064186
H   72.569168   45.836922   46.553123
H   41.335678   98.254837   78.460220
H   41.583099   87.707275   29.243576
H   39.578178   18.613806   64.875732
H    8.829041   82.668602   54.488918
H   27.701971   31.860481    1.461594
H   97.847153   53.945679    4.759854
H   12.428652   18.607582   41.451714
H   63.252708   71.574646   26.451424
H   94.041367   22.964220   73.663338
H   76.886826   34.977818   62.543755
H   96.863731   33.430946   74.256638
H   71.589386   96.901855   60.555649
H   12.820945   27.562290   34.573921
H   91.606850   17.651941   76.344589
H   41.324516   52.541092   69.286865
H   44.588470   32.458344   23.089935
H   33.406853   50.285080   53.764175
H   25.408472   16.342793   45.040985
H   91.112694   65.591927   86.605904
H   53.323093    7.549341   55.487949
