200
TIME:    0.477, STEP:   477
H   16.753748   61.688442   19.392130
H   30.076675   36.338093   99.518433
H   13.170336   79.511604   57.021721
H   25.831438   79.743874   38.302204
H   12.693853   89.735977   50.251011
H   81.908569   46.382442   58.534451
H    6.792930   55.135971   54.238682
H    8.199664   99.120605   16.659836
H   97.053345   83.953178   41.937805
H    2.518386   71.579094   86.724236
H   20.454390   99.657051    0.451094
H   31.757828   48.348713   24.034794
H   16.991047   94.873405   51.578209
H   93.201736   54.206852   53.686184
H    8.179495   73.769028   42.395458
H   22.392288   16.201363   49.210415
H   95.356567   18.818380    3.925329
H   30.934347   94.560295   39.301010
H   72.910835   21.121714   45.972691
H   90.810257   76.449974   28.283428
H   60.929321   88.589088   14.982455
H   84.752800   57.873283   61.441643
H   87.908157   60.818275   43.449524
H   13.628154   90.219940   90.842926
H   13.547760   22.235796   36.953556
H   18.464907   72.854240   99.128998
H    3.485344   63.552235   58.610901
H   99.949249   79.906189    1.354885
H   21.050575   49.325996   36.950596
H   82.339653   27.113270   90.427673
H   13.052070   61.350773   16.484571
H   27.616287   69.061020   99.438080
H   21.396835   14.085246   76.074028
H   88.582726   63.836487   42.432808
H   36.615070   80.007980   32.416348
H   25.319592   44.518246   82.194153
H   93.066788   69.313698   87.734169
H   21.192076   50.885902    4.511465
H   44.298836   37.913986   49.699726
H   87.809883   38.713886   54.438568
H   80.574829   94.152580    9.390842
H   25.135790   38.137142   32.803699
H   72.434586   82.337540   59.128628
H   36.753281   74.744682   27.224567
H   36.874699   83.526009   52.916542
H   37.724628    7.670615   45.265419
H   84.440323   14.601012    1.375465
H   84.345963   65.546989   39.127579
H   96.245964   19.758343   61.337204
H   53.636192   18.871035   95.685814
H   72.570374   67.496368   18.476212
H   12.078397   39.777203   68.637138
H   58.568233   87.641449   11.027558
H   18.879313   87.185089   85.212814
H   67.167191   71.114128   83.108536
H    2.267483   66.511490   86.408875
H    4.754117   17.642311   47.112309
H   69.997971   64.088875    1.025877
H   23.180225   79.055740   12.858599
H   37.621834   94.658363   62.613045
H   49.651951   10.752472   35.312130
H   94.195580   16.986319   50.882736
H   77.976601   30.116093   76.889206
H   29.868322   65.490463    8.959011
H   75.158180   79.612228   27.620922
H   29.442886   25.768761   37.123337
H   77.322365   18.162859   90.731636
H   96.014229   91.988762   91.963745
H   24.952610    9.055963   58.980057
H   43.872704   45.760742   50.969936
H   58.361195   80.691246   79.620773
H   25.479666   17.592247   43.105835
H   85.015762   29.760403   91.559715
H   15.586460    3.755272   67.472145
H   82.030869    4.708058   56.468987
H   59.304214   10.709455   61.328777
H   94.425858   38.773144   68.793236
H   17.777044   10.285580   39.863335
H   13.332397   40.252312   29.689350
H   64.704964   89.345177   83.022064
H   53.426929   26.096508   97.615189
H   37.057594   64.328400   80.530540
H   10.075062   16.265991   83.345398
H   16.945511   69.609398    1.575956
H   30.468601    1.830018   51.065762
H   31.344320   77.482071   22.849239
H   46.477291    3.277965    2.314666
H   73.360588    9.723495   20.381311
H   72.939743   72.634102   78.024353
H   22.257069   96.670135   52.258129
H   31.307882   36.938736   79.700325
H   82.404572   90.614853    3.539133
H   58.518242   14.189177   88.979942
H   49.400368   85.918991   75.612259
H   31.130274   53.720322   77.810562
H   59.457344   33.008129   17.918404
H   82.520515    6.081823    8.536206
H    0.379419   32.121479   50.837505
H   31.647652   67.403908   53.721142
H   71.325241    1.778509   27.308268
H   20.440275   86.979187   80.099800
H   99.385307   80.242165   64.557297
H   28.092184   28.508652   33.814705
H   33.264137   68.377060   99.573875
H   25.024570   24.358166   32.771339
H   96.805679   15.169426   32.794956
H   76.885208   33.039574   55.156250
H   63.354874   43.373974    9.577207
H   78.819565   37.098042   10.592747
H   11.980018   24.755964    6.697203
H   50.312725   94.007278    0.962598
H   95.510338   69.305115   93.210754
H   52.977749   83.024879   88.780289
H   62.421349   14.287920   68.842377
H   55.941338   91.837540   18.462778
H    4.366385   98.864067   89.626076
H   22.830730   11.779907   86.942978
H   39.568684   38.661865   29.241112
H   27.862942   66.611595   71.826355
H   77.037079   51.405025   58.183788
H   43.028145   23.334347   79.753754
H    8.063011   21.865673   55.159550
H   37.950203   11.826928   31.059753
H    0.585470   58.790257    7.486600
H   69.824745    3.084058   84.974731
H   56.405163   68.836746   20.955368
H   89.495628   50.296524   61.901825
H   70.244659   89.428764   37.004215
H   95.384293   43.904823   79.489273
H   79.232475   23.026022   70.539246
H   58.175964   76.723480   12.468449
H   72.603119   88.401993   14.916028
H   91.663857   94.125412   99.138115
H   89.299477   19.079483   52.624256
H   16.134151   97.084793   45.526299
H   56.045769    1.322683   80.190033
H   69.285088   87.168449   67.136948
H   93.239876   56.821030   79.453659
H   52.508011   47.648003   71.494034
H   43.576324   97.723244   88.872147
H   62.350849   56.099087   22.565689
H   46.327820   48.211849   51.771744
H   47.386791   61.123192   91.390343
H   46.853233   17.948702   82.051765
H   51.442051   61.906975   56.818348
H   54.623852   66.059021   18.495403
H   50.336571   95.739906   45.584930
H   36.181015   64.596649   67.465233
H   71.521088   54.897160   95.588417
H   17.016756   91.262283   81.127876
H   67.866493   65.334930   49.555016
H   43.763927    0.552017   40.725285
H   87.185677   22.976765   95.144875
H   16.174955    6.582727   70.095871
H   23.010483   60.138008   65.041061
H   70.537674   44.116558   61.352390
H   61.792065   67.991096   83.562057
H   49.415585   32.857323   15.276560
H    1.534772    0.841326   93.815613
H   61.022575   47.273743   87.336151
H   56.283962   74.780899   77.114426
H   32.476650   21.828104   33.490803
H   75.421028   24.236837   37.133507
H   19.974098   27.142006   61.058857
H   56.684937   30.130182   12.153237
H   15.996987   56.898338   61.006271
H   70.818802   93.733650   54.734146
H   23.839249   41.715565   57.812977
H   97.293304   27.399479   36.297306
H   37.288502    8.671211   87.734497
H   74.837341    8.452298   35.956184
H   37.975563   56.644199   58.185902
H   42.252125   67.270645   83.755508
H   68.307556   68.869049   79.737907
H   60.422516   93.253693   88.087692
H    8.224597   48.941032   23.514122
H   32.983047   60.324688   96.822144
H    3.830470    9.426880   67.910690
H   69.540596   15.870075   66.362923
H   75.026611   56.997383   89.728302
H   77.090874   93.682373   36.208912
H   24.008007   30.395351   78.268242
H   54.723419   89.918617   10.761925
H   56.642048   25.658966   85.909264
H   88.587807   78.054955   77.420425
H    4.221940   38.223602   85.140358
H   39.604462    0.464942    4.516495
H   79.035027   77.263496   33.819347
H   99.755013   62.230278   69.252045
H   53.923336   56.984089   68.697342
H   59.142105   23.183231   77.609016
H   45.710041   91.369888   21.605654
H    9.364805   23.162340   63.235233
H   30.962978   72.989647   38.089554
H   76.761475   43.669426   21.041033
H   75.906754   10.964997   26.319357
H   11.036645   92.021797   11.466107
H   22.021732   92.695908   40.282825
H    8.752861   12.275040   67.417595
H    5.535860   26.963293   94.456123
