100
TIME:    6.972, STEP:  6972
H   45.834061   82.655128   92.762955
H    7.927159   82.666573   17.711769
H   99.612671   75.497719   41.501438
H   82.646835   45.404572   58.005024
H   32.723480   31.593885   76.665985
H   19.900921   93.654808   69.207474
H   87.567581   32.120510   35.672634
H   71.900841   91.768860   68.048805
H   82.242805   15.964156   61.225620
H   84.329445   16.492586   80.699745
H   51.736572   46.776020   68.170341
H   89.738419   73.161011   96.654976
H   99.168922   39.977489   32.248466
H    9.869701   83.586220   87.812111
H   65.287910   47.259422   15.619778
H   21.194836    1.932287   54.304199
H   63.460335   43.113888    8.077020
H   50.160511   55.581482   57.838799
H   53.854458   70.838760   30.673893
H    4.681587   57.751797   91.018822
H   50.548355   62.133614   68.008385
H   30.792770   53.339417   25.548050
H   92.655952   37.919395   32.874344
H   71.259361   20.233614   89.272171
H   80.225899   33.245682   88.029701
H   14.733700   20.566216   34.786476
H   60.876530   52.660469   38.303768
H   44.264404   81.869102   97.228745
H   62.770317   81.646523   27.601339
H   68.330612   18.283134   37.642174
H   90.447212   47.248009   57.776558
H    5.973658   59.879650   53.831093
H   61.456516   58.377525   25.889776
H   72.685280   34.780441   78.032318
H    7.441931   31.791786   49.234428
H   78.701836   31.506142   97.506721
H   48.504181   49.206177   57.831638
H   75.825813   31.361706   14.436728
H   50.783253   29.507387   68.673752
H    6.509331   59.488827   86.577133
H   58.764664   95.410713    6.602535
H   12.651871   68.943848   35.893200
H   71.288300    5.310890    5.069630
H   34.157757   29.667379   62.419914
H   51.885857   56.810703   52.723209
H   88.129173   95.897079   11.485754
H   96.203415    3.998542   92.388573
H   56.613155   67.179321   99.965805
H   68.826180   55.028088   66.360245
H   72.117920   36.851734   96.049385
H   43.022861   96.541550   26.921577
H   43.966930   16.788948   16.368080
H   53.493793   62.434753   97.945351
H   15.238075   93.447006   39.470718
H   85.673630   69.598473   59.650547
H    2.279377    5.199856   55.283463
H   38.246082   88.372139   19.082802
H    6.906480   18.468119   33.973740
H   40.143501   33.357189   76.243904
H   98.939659   63.680477   65.310326
H   99.499260   54.340103   70.803116
H   51.468025   63.047684   79.893616
H   47.390049   31.526745   55.379486
H   21.794029   79.742523   37.850468
H    9.052604    4.001768   44.841267
H   73.046509   95.674675   58.422897
H   28.192247   89.402557    3.669702
H   98.761864   16.273420   99.504517
H    4.384378   48.822876   22.960583
H   71.634483   98.812431   87.052094
H    0.639055   21.026932   78.516487
H   99.124886   20.121014   67.094093
H   52.403976   73.445343   82.986877
H   76.726311    8.161995   88.901428
H   98.319939   38.581631   29.923420
H   90.478859   54.413555   26.802629
H   99.988861   22.356091   14.390856
H   59.537563   94.838020   99.475929
H   95.846886   33.039761   95.466209
H   57.611435   29.222195   20.277031
H   47.304344    1.410526   96.689667
H   64.468849   89.685196    3.727285
H   58.871048   23.714514   93.920914
H   29.812450    8.768045   26.632816
H   12.850904   12.781594   71.895195
H   90.829025   65.149780   25.940201
H   32.798908   96.431267   55.995247
H   68.157951   47.167828   23.289078
H    0.370762    5.982847   71.168831
H   49.920734   22.428493   73.447601
H    9.345722   49.898880   80.697678
H   94.156296   19.840385   66.367027
H   32.372013   36.714245   58.160042
H   21.083775   36.155968   96.910309
H   36.051613   25.220192   76.295685
H   69.780197   20.415091    7.336060
H    9.198038   67.788513   36.223511
H   24.819750   31.434326   38.918739
H   76.583122   66.908989   61.060207
H   72.267937   99.722824   26.105358
