100
TIME:    7.659, STEP:  7659
H   99.375725   19.654087   92.133987
H   88.954208   19.893330   61.031025
H   11.422144   24.922768   33.434933
H   82.762146   17.099663   20.346420
H   26.567770   86.659966   58.038071
H    9.245997   92.910530   37.242424
H   51.561016   78.510452   89.396927
H   17.903999   51.202045    4.969193
H   65.355034   49.911804   17.979729
H   65.565254   26.356890    7.599173
H   87.833511   74.419128    1.996235
H   63.520866    7.596691   47.752769
H   55.360741   98.397369   63.975475
H   75.853462   81.468697   40.093769
H   73.632210   85.893204   82.580353
H   93.570816   41.844910   97.276642
H    8.215857   88.554367   70.617340
H   64.851837   22.151871   34.027145
H   64.552414   99.655945   66.866135
H   86.170303   43.164997   37.792915
H    9.780792   93.739197   49.363621
H   96.656128   54.251419   67.043686
H   83.483513   32.332069   13.216798
H    7.426027   28.452120   38.249794
H   55.654243   78.763428   93.103371
H   11.494518    0.316103   70.137291
H    1.634385   24.100840   51.936634
H   86.297508   13.935920   19.937685
H   77.708290   43.976154   95.127739
H   94.673859    1.278917   92.257500
H   17.484755    8.853432    3.423353
H   49.351162   40.900562   90.232094
H    9.846138    8.113802   87.780159
H    1.712203   71.821083   49.089340
H   90.344200   79.776268   91.031158
H   38.421146   85.314316   95.347267
H   14.397099   24.046656   11.964482
H   47.431000   18.787601   62.914383
H   21.782619   14.540586    2.098695
H   41.801170   95.173050   40.628777
H   11.813383   18.982466   22.787199
H   54.755165   71.637924   70.964409
H   77.200592    9.431936   54.690197
H   90.290985   41.198448   29.592094
H   92.294365   29.707455   11.511200
H   79.260735    8.999087   14.276796
H    1.571557   41.361092   98.982246
H   56.655087   74.255203   42.473049
H   88.911201   98.132515   38.953445
H   86.542236   47.308315   48.015503
H   42.975689   30.216879   34.163345
H   77.355804   53.040966   71.271118
H   67.743767   66.418213   58.047859
H   99.330231   82.240906   69.786942
H   30.974392   29.802769   65.493362
H    3.135034    4.477199   31.896362
H   81.798965   68.549187   84.422020
H   55.750656   53.589470   16.276464
H   94.322563   62.389271   23.504574
H   53.602806   16.483868   45.770409
H   42.836559   22.393017   17.240646
H   27.085060   56.653183   48.809586
H   94.029839   84.646393    8.269836
H   68.970695   83.484879   19.196346
H   36.321373   49.133190    8.818084
H   30.842876   61.521751   99.043701
H   73.072479   13.154591   36.839397
H   51.306282   55.563957   32.347092
H   38.626030   99.459450   79.873993
H   85.575066   33.336033   85.598984
H   78.824318   74.283737   70.277016
H   42.567242   97.290428   17.448168
H    7.609594   39.466839   65.375793
H   61.600483   64.679993   48.081451
H   31.412203   39.592663   82.012283
H    6.718518   98.442406   80.575417
H   62.383503   62.895721   26.574476
H   91.814072   49.918468   37.417858
H   28.790228   31.021824    3.130772
H   23.920383   91.797020   61.091499
H   60.752586    8.518228   37.750870
H   16.022083   94.140381   46.251980
H    2.323069   35.203648   59.348442
H   77.075676   67.556396   63.884830
H   79.400330   69.803368    5.298882
H   75.020981   90.381851   73.647369
H   78.682076   46.480782   88.753960
H   79.206810   92.193115   16.166023
H   14.629624   67.731392   65.550056
H   89.180206   94.162735   98.008774
H   37.460560   86.995476   95.205856
H   44.987339   71.509430   79.460030
H   76.410202   57.328648   11.286807
H   87.478798   77.835533   43.233349
H   24.172886   63.684128   92.082764
H   26.523621   93.286987   71.851555
H   54.666801    7.214040   96.712288
H   23.493677   65.425026   25.127325
H   43.855858   69.875618    3.514945
H   14.941963   82.090775   59.925381
