100
TIME:    3.515, STEP:  3515
H   79.617340   99.678009   95.927933
H    3.493521   95.321960   99.725204
H   40.174408   26.786812   82.080528
H   82.066589   87.831535   47.494587
H   63.687515   54.500256   70.398651
H   73.516243   97.400032   26.847979
H   68.747719   98.686317   65.330513
H   43.614227   92.694504   85.458321
H   67.222527   48.340515   78.830803
H   78.785439   66.853554   45.334587
H   73.298294    7.676233    1.167265
H   21.682320   99.879669   42.727119
H   19.673592   49.045059   75.766106
H   81.038918   94.241646   24.732975
H   23.256771   56.053238   81.810005
H   60.194046    4.294270   41.265968
H   41.451820   14.461362   93.372665
H   76.254723   23.766380   77.684753
H    0.016086   25.811617   48.545132
H   97.820641   31.171423   55.650169
H   55.691635    6.287370   61.837082
H   99.366821   48.750198   19.943527
H   38.813713   66.034950   31.783081
H   92.459892   78.838593   46.019535
H    3.868194    7.401535   62.498878
H   30.540560   22.874720   59.709145
H   58.977337   96.361954   69.715675
H   35.956509   20.508011   82.959190
H   87.600769   68.000290   91.016914
H   35.773224    3.843316   62.820953
H   54.394001   37.252453   31.283333
H   87.696541   55.393623   73.862907
H   17.948999   11.308384   14.455914
H   26.618885   51.593941   23.669304
H   93.397064   93.212944   38.766891
H   78.173164   60.607914    8.553727
H   16.933582   75.808578   85.433647
H   18.711250   94.622124   70.484306
H   96.702118    4.832579    3.682959
H   32.120045   83.120911   14.586748
H   95.026917   76.790833   25.157576
H   15.713005   69.614944   67.938934
H   41.517590   84.578354   55.364948
H   54.902328   71.681702   24.412340
H   51.754856   93.208221   56.898983
H   32.739307   29.960041   97.440620
H   69.195602   15.995362   59.205246
H   56.427135   31.573477   86.066231
H   67.774338   41.336861    4.258256
H   99.597649   84.239799   37.820393
H   43.276447   30.293312   90.478424
H   75.955322   37.573402   43.309292
H   81.788567   42.389893   98.723122
H   95.295952   49.857819   86.924286
H   60.923813   66.630554   30.243414
H   97.964279    8.837042   72.967911
H   19.088106   88.122688   90.293114
H   64.322014   44.939468   23.017422
H   67.496330   87.285645   41.634838
H   27.065277   97.961716   63.635628
H   81.429359   15.109004   40.338421
H   74.160393   95.224960   36.312119
H   12.693219   67.425835   92.436363
H   84.408501   60.915230   31.708324
H   71.840340   80.107155   22.905943
H   85.413246   67.531776   54.018036
H    5.553130   69.883148   36.767193
H   37.560783   18.563879   34.239925
H   32.089340   97.220856   39.778278
H    1.600801   24.936502   94.331543
H   10.414696   56.239342   19.983532
H   84.139145   34.869247   13.973163
H   77.806732   44.439198   71.625237
H   52.834972   26.942856   94.305229
H   31.644262   33.649540   67.858803
H    8.752433   32.850868   59.413486
H   86.094307   21.889454   53.213917
H   97.121414   20.882895    8.559212
H   30.069845   43.194065   56.901375
H   27.143227   17.518841   18.100693
H   79.662064   65.645950   90.072479
H    5.058177   67.183182   92.854980
H   40.192966   65.928986   64.686279
H   91.976654   12.944965   42.375557
H   81.177704   29.019123    7.012606
H   70.396362   38.166077   85.875381
H    1.913626   47.783791   91.151993
H   12.536749   23.874771   59.187897
H   28.630592   98.463142   99.442635
H   55.566013   64.661087   49.869118
H   67.870880   63.229824    7.692178
H   38.368195   59.852661    0.502597
H   10.772737   32.984596   90.824791
H   86.965797   26.442986   63.815582
H   95.816948   34.877491   96.858727
H   84.246155   56.927559   85.894478
H   83.598389   69.399269   35.039009
H   19.769041   46.165802   99.793297
H   41.266838   52.002079   50.619453
H   57.539852   88.433144   59.129463
