100
TIME:    4.230, STEP:  4230
H   31.264111   34.108704   95.273331
H   83.653511   34.081360   44.821167
H   52.464561   78.227348   73.690712
H   82.186600   58.374443    8.301671
H   57.283325   11.810657   51.011520
H   62.430874   96.625420   97.656761
H   31.276463   46.968182   21.244516
H   87.416634   54.549877   19.808971
H   49.646461   79.596085   33.823254
H   59.245567   77.119896   73.333374
H    6.790726   36.445606   32.294788
H   94.392021   35.718529   91.833443
H   74.142105    5.793243    4.708052
H   45.635857   92.037819   79.145248
H   31.954796   92.187012   47.440769
H   31.446053   41.757866   81.914001
H   83.955635   61.750950   58.461937
H   91.528770   88.995628   52.894711
H   11.152039   55.808754   86.215240
H   78.553520   15.987383    4.330688
H   13.262512   35.107647   42.433586
H   67.914566   49.699371   59.054703
H   29.267433   60.219902   11.324351
H   26.028694   87.413879   92.916000
H   78.295319   50.700089   67.779335
H   27.263594    1.604048   92.648659
H   97.320915   66.643021   83.898720
H   75.626190   53.881805    6.591464
H    3.147778   32.870327   57.217628
H   63.190140   86.146965   19.661366
H   82.532845    1.368363   74.714806
H   32.841869   35.641006    7.671734
H   68.313942   58.995262   78.868759
H   56.829254   86.068542   93.548698
H   75.624619   39.164635   82.305679
H   40.344013   16.740986    6.129796
H   85.510910   49.624496   41.772694
H   89.158699   81.540993   20.941280
H   66.524963   89.253899   34.393456
H   64.773735   16.184597   70.842834
H   46.160873    1.327237   42.002666
H   51.452835    1.701602    1.530851
H   47.676304   88.865997    7.011677
H    9.245195   83.660919   94.321899
H   89.734459   64.994873   18.083261
H   23.514874   43.597584    0.343220
H   74.781540   54.879845   66.071465
H   56.465321   38.937592   30.306328
H   88.677963   82.120941   75.738861
H   14.593333   95.117104   87.812843
H   43.221897   61.264351   98.017258
H   10.702944   71.227631   96.369385
H   96.615303   46.535706   57.198635
H   78.734520   38.189537   18.474522
H    3.995494   29.295259   36.324970
H   98.858902    8.084249   48.627625
H   64.413895   67.491814   58.295662
H   11.081174   77.416222    4.599401
H   23.887999   17.496555   86.743904
H   79.882050   52.920803   43.299324
H   26.532568   81.857079   84.591713
H   48.783653   88.569839    3.958836
H   61.236332   18.635414   43.406670
H   33.505684   64.805786   12.293919
H    0.217361   23.000549   89.490257
H   41.489449   31.986885   96.294418
H   48.187943   94.605286   71.286545
H   88.170616   59.455582   68.421059
H   67.726395   45.845505   94.933655
H   16.086542   60.900894   92.825958
H   87.710289    7.590366   11.405518
H   25.184597   11.139644   66.323784
H   31.188108    9.074322   53.293190
H   37.091793   81.697197   51.821556
H   66.114876   34.669628   22.060865
H   25.656946   78.676720   11.304649
H   51.012016   59.919117   65.858650
H   30.713421   74.132088   48.047821
H   64.354683   41.093884   64.881462
H   92.077911   78.579674   56.502922
H   93.648727   73.042953   32.805523
H   58.707993   71.852676   33.067993
H   85.428841   77.864563   32.786633
H   41.167206   74.129219   77.071365
H   46.363785   84.295815   37.701279
H   53.940693   64.431892   35.527359
H   49.666862   95.797455   25.246367
H   24.044107   66.630226   51.752708
H   43.468857   58.652428   93.594856
H   92.349533   35.242302   75.428314
H   97.131592    1.840178   22.791666
H   91.273590   13.618790   14.127481
H   56.604683   54.439178   46.116924
H   56.074123   69.814743   12.026209
H   83.455879   70.832695   13.288131
H   43.302261   28.692711   48.964012
H   26.844639   10.431563   93.917496
H   22.392904   52.253601   88.348671
H    7.205728   55.084164   90.729668
H    1.953598   70.082466   90.250687
