100
TIME:    5.876, STEP:  5876
H   19.952501   83.163078   93.766373
H   38.193611   23.275221   48.606693
H   80.765137   96.647461   54.370274
H   82.462875   90.558380   18.078934
H   42.540253   43.744736    6.383375
H   36.900494   94.842186   60.667126
H   45.008602   58.114483   49.963932
H   58.044281   96.951218   68.679893
H    9.184639   21.340073   30.213259
H   14.266726    0.754082   37.786900
H   53.683823    2.676323   73.742821
H   31.570503   18.223881   74.669090
H   69.107162    6.256683   41.152763
H   64.136421   86.964394    4.405377
H   51.972237   45.159256   68.319977
H   65.262634   97.792458   45.281952
H   51.594185   70.621468    8.303808
H   26.722342    8.912430   95.833534
H   36.787991   24.858377   72.931519
H   34.207161   81.028847   16.397974
H   15.586540   71.243591   97.759727
H   25.718185   51.884460   18.882568
H    7.289769   46.833092   64.231155
H   73.093529    7.122286   70.671341
H   19.424835   20.163307   79.935463
H   19.760199   52.951187   37.865036
H   55.385559   98.217728   16.554686
H   36.742069   30.711510   61.004662
H   38.939140   82.208832   79.410797
H   26.304695   45.408867   50.513504
H   47.313728   48.967426   44.488518
H   36.771366   90.165009   55.293297
H   84.254875   38.565773   27.153440
H   26.377033   35.222313   24.204222
H   34.710709   14.738892   82.535492
H   83.428436   45.662514    0.952260
H   43.383728   89.342896   71.471169
H   21.127460   51.421703   37.094288
H   97.043213   53.388298   74.884346
H    9.740274   62.092762    0.345437
H   33.668137   57.800644   80.781715
H    5.016669   64.645874   79.939018
H   61.854267   98.736572   25.904053
H    4.142186   11.271383   55.259430
H   46.955914    0.056615   58.935650
H    2.276572   74.992538    7.033087
H   87.640915   44.395279   81.869408
H   56.553226   55.890869   32.151478
H   36.790802   45.798981   10.077224
H   49.115231   20.167830   72.688156
H   43.098118    2.353260   15.369615
H   90.695625   18.490223   88.313148
H   30.758015   56.079773   61.601513
H   40.616188   11.328557   91.108727
H   72.938988   73.550125   50.327122
H    0.914302    6.352741   92.593887
H   68.763512   19.997520   14.844070
H   88.516754   21.972044   62.203232
H   53.703545   87.044151   60.380821
H   71.262436   79.437302   96.483177
H   30.363659    5.311493   56.255756
H   90.367195   73.249100   29.483620
H   72.982994    6.315042   30.535492
H   46.534424   73.772186   67.609161
H   65.553375   91.537704   42.775623
H   40.373894   50.159660   93.618309
H   16.125984   51.509563   50.755875
H   74.470192   53.592258   47.109379
H   49.762264   27.574440   91.699707
H   49.430984   43.688255   89.359955
H   35.443962   95.597610   91.661263
H   89.464127   56.511993   86.835220
H   23.865368   27.655365   11.085808
H    0.858235   77.526329   54.021324
H   45.476192   37.017971   46.839005
H   64.573952   84.169609    0.549881
H    0.457229   17.253073   94.968056
H    8.045497   66.504478   38.949638
H   43.287800   36.259060   83.241234
H   11.360620   88.925758   14.698405
H   25.856287   90.071579   31.183252
H   82.221878   82.577515   95.413200
H   89.544609    5.386474   89.543900
H   54.408310   14.980976   26.735386
H   66.216728   81.338112   78.140137
H   16.053257   24.888611   49.830536
H   59.599480   76.119713    3.733810
H   50.531242   34.869961   34.652786
H   77.626572   67.005943   80.132698
H   46.821667   67.523117   34.270477
H   64.492790   90.718842   57.552166
H   13.063395   37.410294   45.486626
H   62.116394    3.827225   73.404678
H   15.160566   69.663277   23.008577
H   54.999489   23.393139   51.109898
H   79.255081   63.694733   63.945877
H   96.193443    4.892363   99.254883
H   26.935289   77.202133   60.918678
H   28.793823   62.179424   52.861298
H    4.193007   27.847546   31.686909
