100
TIME:    8.888, STEP:  8888
H   16.263088    6.949680   91.008804
H   55.011185   86.491623   38.521809
H   32.547459   13.342349   19.008682
H   82.968430   66.464836   52.982056
H   15.555040   85.169647   24.714924
H   90.189453   91.579063   58.955116
H   87.149895   61.499619   85.506340
H   21.307022   57.525944   92.126778
H   35.143867   31.747791   40.619373
H   31.997290   44.003513   55.721870
H   73.514923   23.869576   83.612053
H   16.610107   69.200142   60.271400
H   76.991348   24.009056   41.842293
H   15.001081   77.680580   33.620983
H   88.559639   76.112862   23.477165
H   44.156525   34.352074   95.258850
H    9.386935   69.841820   82.498055
H   91.127884   62.348869   91.424881
H   83.699280   51.217220   31.615955
H   53.055515   17.067442   21.468927
H   36.850197   71.389435   16.009069
H   14.481561   55.882935   62.382980
H   67.074593   22.341227   78.053940
H   93.234406   43.154510   46.974339
H   11.699027   81.297653    2.178799
H    5.698792   64.085251   54.482288
H   95.656548   73.014725   76.320236
H   82.597839   71.301498   60.564781
H    4.431664   55.480770   37.030785
H   41.797844   70.861374   89.959442
H   65.856483   19.060177    6.188805
H   26.950916    6.947573   76.457405
H   96.415054   18.193966   98.498184
H   53.641495   59.190521   97.314919
H   59.757973   86.723701   65.807190
H   45.255878   81.578430   91.484138
H   32.274162   79.036873    8.804944
H   96.635490   96.296425   49.641876
H   69.908318   87.763756   82.999374
H   26.043528   80.118843   37.323845
H   27.819250   61.148705   51.741909
H   51.181702   76.457458   33.709354
H   87.777313   16.804485   43.462002
H   11.816181   61.833282   49.755207
H   85.687500   81.225029   16.681604
H   63.396011   32.435802   19.269796
H   11.179608    8.197573   10.784309
H   56.730099   86.913513   18.516209
H   24.835815   96.346779   89.927856
H   12.343065   66.015495   62.084988
H   42.891300   11.564323   47.121704
H   37.086315   38.998493   90.594002
H   93.229164   73.544373   86.671646
H   70.863098   62.193047   24.018703
H   33.119576   37.506638   75.938812
H    4.665752    3.184410   90.058289
H   59.711166   33.087166    1.310117
H   64.237000   37.525612   84.620018
H   91.255608   14.318231   29.153479
H   72.501595   10.948712   10.814720
H   20.362432   65.236206   21.418026
H   83.465416   45.213821   93.200615
H   77.467651    0.781422   23.993622
H   53.363689   90.179718   85.830124
H   85.103378   50.974735   23.269606
H   55.344978    0.424901   71.712288
H   74.467484   55.641552   96.174057
H   66.410782   25.852016   91.100403
H   99.877380   11.151329    2.791897
H   10.535659   95.066422   82.992310
H   39.793400   90.659859   55.537117
H   41.361931   56.483788    7.533230
H   27.477554   78.673210   33.861568
H   34.549206   86.898232   75.058998
H   90.615540   41.402332   75.195816
H   35.775673   77.211052   97.880264
H   74.002762   56.522289   48.373734
H   49.548786   69.561638    5.299590
H   87.725471   27.411861   16.846430
H   63.649437   24.848124   55.212059
H   84.812752   21.232798   11.206901
H    8.245005    2.112598   43.433708
H   80.060295   55.756992   76.391655
H   61.628120   72.724586   51.635181
H   19.559341   92.923203   86.161804
H   46.735653   35.524506   58.992920
H   60.764271   57.122154   47.357368
H   98.972527   93.847816    3.423162
H   40.136967   99.303185   55.498421
H   80.520554   43.600723   41.940987
H   87.756248   53.355526   21.160423
H   35.920895   63.941925    2.881517
H   55.191410   94.198845    6.327266
H    6.256455   52.397572   26.102030
H    2.921270   53.597485   20.322809
H   28.033981   44.754089    8.372192
H   57.114586   77.742912   26.031639
H   21.121416   26.239025    0.452997
H   85.309319   75.182732    0.573379
H   91.279648   50.552143   41.531132
