100
TIME:    0.607, STEP:   607
H   76.273598   66.356331   98.590286
H   84.385399   37.655666   16.289518
H   90.193542   17.574036   16.212692
H   81.578491    7.641108    6.890886
H   89.734207   21.411247   49.246620
H   18.603741    0.553005   38.858807
H   21.158043    2.324204   37.920963
H   72.177292   41.114826   52.462013
H   38.706779   27.932922   61.879951
H   58.252220   25.100811   31.459597
H   43.793365   90.666626   81.279823
H   32.673038   54.116417   49.721840
H    4.651726   24.983215   64.797142
H   25.026646    3.205747    3.432114
H   87.885033   15.804290   21.594015
H   77.117783   58.645473   82.653793
H   75.264656   22.138870   28.620649
H   14.115502   65.182236   78.502731
H   54.716255    3.816085   95.342758
H   76.218452   92.805389   57.598793
H   28.256302   95.788055   40.768272
H   20.551075   44.901108   67.571602
H   77.639702   89.685524   14.982662
H   62.644653   43.961765   61.994911
H    7.874475   38.034847   41.041031
H   43.875729    9.523326   32.279480
H    9.736090   17.244377   12.011366
H   81.323814   84.771896   86.838181
H   24.369873    4.164041   28.478497
H   24.268190   75.816544   31.642864
H   39.979404   76.475456   61.378929
H    4.083650   35.740906   43.071037
H   13.113672   24.070993   52.480309
H    3.749029   18.094635   46.178871
H   65.683891   13.035737   61.689148
H   25.331615   32.168835   18.555731
H   38.018291   82.306007   56.294506
H   38.901695   47.844379   65.274406
H   23.431389   67.550331   83.948792
H    6.021183   55.358570   85.791801
H   93.760498   77.007835   56.642803
H   77.067467   39.100647   31.317907
H   16.469282   67.139938   45.317047
H   40.597900   22.944002   40.081429
H    4.003101    7.942903    8.049864
H   70.199074   74.615044   85.698647
H   42.489429   58.486462   32.810005
H   56.271832    1.632991    6.135633
H   82.773003   82.177353   20.260118
H   38.620518   39.988323   41.210022
H   43.498310   11.041475   59.816990
H   34.631233    7.413541   34.213684
H   21.470621   25.528320   67.617744
H   62.632862   97.298698   58.601582
H   92.436066   11.717310    5.556870
H   94.325729   11.894016   71.963089
H   34.732697   72.032188   13.718300
H   80.860291   19.563393   97.919632
H   38.149406   64.415817   64.884949
H   18.963463   74.444443   46.345055
H   97.990280   50.341705   67.068115
H   77.367523   22.295486   67.891708
H   15.405031   65.760704   91.915382
H   84.721138   45.096413   10.659178
H   56.416489   12.363670   52.090446
H   64.056374   12.097309   82.076439
H   38.868279   69.346191   96.367599
H   38.436241   52.252365   95.220711
H   87.154839    6.171165   22.162006
H   42.682404   78.674461    0.454334
H    2.756515   54.103420   54.867405
H   23.917421   31.380486    1.062782
H   67.414246   88.282143   46.184811
H   16.830406   10.967047   67.132790
H   91.438034   29.507387   47.412891
H   40.009235   46.476089   55.085346
H   22.066284   73.934441    1.774854
H   60.498291   11.030113   47.963329
H   90.647102   51.724461   24.456722
H   69.757095   75.896751   68.627594
H   22.760365   35.561352   16.267738
H   86.866905   48.191727   36.021675
H   56.201969   17.388746   87.713684
H   91.925446   64.103371    7.987373
H   22.773813   10.914897   88.910698
H   37.322224   31.349972   83.935097
H    7.694891   59.219078   52.487225
H   65.726669   56.696068   89.430321
H   68.279732   60.375252   23.234310
H   12.669216   84.308899   45.912136
H   48.863499    6.208495   46.280468
H   23.198809   41.157936   45.088913
H   24.229870   45.818031   65.873985
H    5.896025   50.052422   67.744301
H   46.097706   95.357635   30.033981
H   44.057312   71.761406   36.096733
H   14.421759    2.515020    2.279677
H    9.093854   21.405914   46.323769
H   79.796043   39.466831   94.206642
H   76.938217   63.113972   39.223495
