200
TIME:    0.634, STEP:   634
H   21.577948   61.167393   22.076733
H   31.476023   38.630112    5.892208
H    9.879788   86.383469   64.754814
H   31.123684   81.578926   34.196693
H   11.026944   93.715118   47.993729
H   76.801086   42.121216   53.887527
H    9.067580   55.024574   57.277538
H   11.717946    5.899741   11.087134
H    3.429114   81.599472   38.107792
H   96.991684   69.379906   80.531532
H   25.926607    3.010775    5.412438
H   32.407043   52.539268   31.515448
H   20.844418    0.083907   45.143547
H   85.781273   54.869244   61.251583
H    0.599516   74.977623   42.009163
H   17.816036    9.732563   45.823593
H    2.742083   26.171467   96.302589
H   27.206448    2.107849   36.505909
H   78.134506   15.437798   48.283875
H   91.309746   74.293907   22.197330
H   62.813484   96.426392    7.789726
H   81.257576   63.874336   55.391479
H   83.206734   59.676758   39.682396
H   16.953587   91.651329   90.350624
H   20.371765   28.550077   31.351376
H   18.334944   79.821930   93.943657
H    6.525779   66.702492   64.923386
H    3.552597   86.382774    1.768000
H   27.663113   44.553902   36.031273
H   75.244995   31.319098   84.996780
H   12.847094   67.910011   16.676521
H   24.761295   72.740707    3.303589
H   17.603355   17.463469   77.991730
H   83.386604   64.007774   45.177002
H   29.080698   73.520615   31.221930
H   20.191147   40.938576   83.994469
H   97.572968   65.925079   88.912819
H   13.426291   54.947094   97.452530
H   38.488235   32.292042   53.189560
H   86.304230   38.068264   48.305756
H   80.621544   86.818359   14.602086
H   32.950333   34.844948   28.148144
H   69.607742   78.730919   64.958397
H   36.403519   82.369972   32.839581
H   42.239113   88.316071   58.582207
H   35.515259    3.584715   46.972904
H   87.398926    6.909105    4.817457
H   80.523735   65.544594   33.483475
H    2.317716   13.800467   61.450397
H   48.017841   19.579542   89.043930
H   68.835587   65.509193   12.254252
H    6.076895   42.479473   72.012581
H   62.803108   83.153236   13.078068
H   16.542675   90.498245   87.537773
H   60.521713   67.622498   78.030998
H    0.254854   62.643532   91.549896
H    4.306059   18.236427   45.428181
H   71.713242   67.738617   98.191978
H   19.867369   82.088608   16.655796
H   33.990658   93.776772   59.710739
H   49.143478    7.689360   30.725014
H   97.017632   17.358240   52.086540
H   82.301910   33.368332   71.592468
H   33.672417   65.714455   12.464417
H   77.681976   81.952759   34.041004
H   23.284021   31.868334   39.945389
H   71.457863   14.851148   93.975319
H   95.135033   92.345711   95.072075
H   30.537123   11.177592   56.992882
H   42.968952   48.497150   50.961552
H   58.292320   83.406693   83.820312
H   21.067215   13.465568   42.006840
H   89.998672   32.474651   86.302505
H   20.701418    0.304301   72.043007
H   83.942581    7.249522   49.086853
H   63.272575    5.166678   60.302849
H   93.762268   44.617882   66.572487
H   11.962057   13.144464   34.494728
H   14.526020   47.246952   26.212093
H   62.338856   88.469574   75.576447
H   60.090374   23.443048   95.284241
H   43.961201   61.504620   75.676994
H    9.462529   17.988150   78.751778
H   11.825750   74.743233    6.692813
H   24.877800    3.490227   46.616478
H   35.767296   71.988892   19.581001
H   53.513855    3.605118    2.674609
H   72.054970    3.880105   26.303009
H   77.745377   73.016205   78.589722
H   21.470703    3.707532   50.530880
H   24.726788   38.294064   79.001999
H   81.310966   91.992340    6.964809
H   65.976593   12.418507   84.508499
H   42.360210   80.278481   79.923195
H   35.108284   51.596596   84.349434
H   52.955605   36.518326   10.536655
H   84.650230    0.651478   15.297722
H   96.063667   34.560829   52.323994
H   28.090141   65.831177   54.277527
H   74.055061    4.329479   27.346598
H   27.445097   91.320068   87.492714
H    5.223063   82.617432   63.691277
H   31.346647   22.770819   36.008503
H   40.807976   68.666931    5.808799
H   24.816450   22.294930   37.861454
H    3.021316    7.482748   25.444296
H   84.322441   34.989017   54.425583
H   62.429562   49.401978    3.506284
H   82.809486   35.116257   18.184498
H   17.023417   22.566957    7.465601
H   52.378357   92.642967    1.073059
H    1.814319   73.253113   94.999092
H   50.250923   84.846756   85.365318
H   61.889519   10.903194   64.793762
H   50.702095   98.375214   12.957837
H   97.959190   94.271645   96.708755
H   16.375706   13.990624   88.773239
H   38.772137   46.389568   26.102837
H   33.825272   72.506042   64.066910
H   81.180321   54.538509   64.040512
H   44.666756   24.377644   74.609138
H    1.288843   18.146458   59.777725
H   41.735298    5.205257   35.717396
H   98.272446   53.140762    0.611363
H   65.126915   99.196877   79.782204
H   62.157070   73.132111   17.923998
H   85.593147   51.029587   55.838486
H   66.810524   90.660118   38.330196
H   97.316368   38.221790   75.911400
H   86.842194   22.281879   73.213966
H   64.513603   71.117706   18.468304
H   66.576912   89.959152   18.618473
H   91.151192    1.763808    0.306085
H   81.601120   23.104740   54.556332
H   23.890003   94.245972   38.311859
H   51.864197    1.121188   77.877052
H   69.545013   87.568520   74.952690
H   94.579033   51.918972   76.972984
H   56.611725   49.843597   71.456902
H   43.661369   90.193779   84.509705
H   70.123474   51.482109   27.637238
H   39.100204   52.982147   55.431667
H   42.339798   64.012917   86.094803
H   39.659157   12.265570   84.653419
H   58.821789   56.700073   61.952183
H   60.376358   68.763687   10.976120
H   54.049797   95.052361   44.460781
H   31.894035   58.752510   66.564476
H   75.718231   48.342117   94.027664
H   22.021526   92.976357   75.252594
H   62.332771   68.001266   48.369778
H   50.372871   96.207588   35.805260
H   94.479172   17.106274   89.633728
H   20.325085   10.186474   66.216148
H   29.236126   64.284286   67.881081
H   75.198372   44.505848   66.182846
H   63.435467   72.699707   85.421066
H   51.647713   30.338318   18.954750
H   94.349098    0.249763   87.993034
H   59.262386   40.867828   93.361160
H   57.826149   68.402534   72.940041
H   25.105017   21.014488   32.130684
H   82.179100   17.391624   37.068226
H   25.737085   31.754192   54.342110
H   55.181679   35.457466   13.695873
H   18.701954   51.902851   60.148037
H   68.115334   91.194283   56.398510
H   23.976398   48.858734   64.305130
H   99.426613   26.888910   35.926582
H   44.453232    7.486423   85.966522
H   71.838013   10.319392   35.943008
H   32.551857   50.812637   58.668022
H   45.285591   60.524242   79.337967
H   66.374283   65.113899   83.380463
H   53.125427   92.072647   80.705559
H   13.071855   49.789085   23.664747
H   31.370190   65.229294    3.389469
H    5.221952    9.576607   69.918228
H   65.525520   12.220183   64.526672
H   67.558235   58.681511   91.943062
H   74.224503   99.308510   32.558571
H   27.174730   30.587002   83.999786
H   47.494007   89.752121   13.872650
H   60.061211   25.949436   91.685127
H   90.618103   71.245377   76.773605
H    7.508669   39.548386   85.926125
H   45.071289   97.775810    7.995249
H   71.492386   83.913765   39.313126
H   95.208107   62.930401   71.046371
H   56.778328   56.130047   70.680923
H   66.642014   17.988907   76.487862
H   44.422989   95.636505   19.605902
H   12.852094   26.897427   66.832146
H   28.220282   79.255417   41.253582
H   71.373703   36.656818   20.527470
H   76.290054   11.350245   24.168381
H   12.080241   96.302788   16.765242
H   17.458956   89.575600   35.855103
H    6.659230   12.714338   60.396004
H    3.898369   21.644096   92.274902
