100
TIME:    8.116, STEP:  8116
H   68.470207   77.745323   91.715591
H   76.332596   44.658886   89.844925
H   19.277529   57.801346   28.070282
H   82.838852   98.270256   95.296577
H   22.472719   23.290440   45.646576
H    2.158544   92.415428   82.500984
H   27.611012    9.368182   25.134937
H   81.984695   90.739342   63.010651
H   54.121101    5.972396   89.213821
H   53.083107   32.918736   25.494308
H   45.324478   92.807632   57.974571
H   46.077240   30.503551   15.223381
H   26.219460   70.734421   18.561560
H   53.225212   80.060097   74.871849
H   79.182930   45.071701   60.601158
H   75.196259    1.873837   59.342072
H   71.466560   18.781666   12.219853
H   74.621384   99.914604   18.185848
H   71.672119   18.828701   90.944824
H   73.855515   33.461697   68.907631
H   82.661781   48.244396   36.961666
H   40.469166   54.858093   28.125885
H   77.381905   28.616907    0.141048
H   64.965485   33.919159    4.308589
H   39.308907   42.521294   96.478432
H    9.339779   86.843796   27.130363
H   62.228218    5.103484   61.005367
H   47.736816   35.267139   35.043877
H   87.645195   85.439194   73.524559
H   12.197023   89.968185   28.586926
H   35.470890   49.832664   67.266991
H   78.206535   28.275463   47.925285
H   42.037189   74.677315   28.950331
H   21.022278   29.939644   29.836348
H   78.970802   45.174919   18.835524
H   78.147842   21.109144   93.910774
H   58.228268    7.309072   47.974331
H   28.543587   10.423750   95.165627
H    2.491581    4.584505   57.811546
H   98.757309   52.391113   76.585205
H   80.580673   34.661858   33.553921
H   16.241814   73.430054   94.296959
H   81.133514   12.173302   87.700661
H   61.108692   48.869629   74.274200
H   52.652267   11.677891   50.618370
H   73.361351   17.713928   16.133429
H    5.144048   66.213814    3.370600
H   56.682980   78.962158   70.749641
H    2.271450   60.281967   20.722919
H   96.137451   54.264149   16.061378
H   42.944309   86.095833   38.981873
H   99.565659   10.633924   41.272125
H   77.220436   69.068054   31.507574
H   88.744812   74.786484   89.953629
H   94.586494   69.853119   69.377472
H    3.704227    3.996479   16.339005
H   10.771892   55.362740   27.886696
H   21.721643   10.431051    4.504699
H   30.365982   81.698540   88.420898
H   23.446915   51.611698   32.772240
H   71.664047    1.140849   81.608559
H   10.865242   52.399490   28.130692
H   25.055401   53.461945   76.931976
H    0.350419   85.974335    6.788023
H   54.462326   12.632500   51.376877
H    2.770239   38.802849   26.065617
H   36.407043   28.954113   58.902813
H   19.738304   81.699760   54.194336
H   61.404205   66.622337   51.212311
H   94.856483   56.288540   84.629700
H   64.312950   43.189331   64.796028
H    4.935010   82.116600   50.945011
H   77.812576   16.861826   53.657497
H   51.541546   35.758289   20.928263
H   53.426758   40.265583   16.662069
H   17.522898   27.731892   49.824921
H    3.888510   23.339867   34.679733
H   13.283307   20.038021   62.657597
H   50.703720   29.679470    8.230844
H    1.509589   66.902458   21.720436
H   69.699287   13.246102   65.065155
H   50.313934   97.104019    8.019951
H   31.229181   42.846348    2.869173
H    8.517659    6.662628   22.146343
H   57.148636   41.215755   60.997826
H   64.505295    7.167251    5.382827
H    9.204148   13.253094   10.545540
H   86.556633   55.624504   11.427689
H   24.115009   42.285942   61.812386
H   48.775784   75.362808   14.345045
H   56.162861   11.672603    4.857058
H   78.800713    5.880457   88.169640
H    5.704805   71.039787   46.627319
H   31.646143    5.561185   74.048210
H   16.270432   22.747566    2.584285
H   64.269913   75.240173   48.247047
H   18.392523   33.439140   70.430046
H   22.611559   88.039330   15.952250
H   22.085320   71.849052   65.238380
H   43.326679   70.361740   15.899665
