100
TIME:    8.247, STEP:  8247
H   59.611076   65.731926   91.595657
H   72.714584   51.757984   98.104385
H   21.529291   67.226166   26.532627
H   82.860840   92.873222   88.116524
H   21.298864   33.790668   42.094528
H    0.126887   92.273506   95.473854
H   20.745285   18.214319   35.379307
H   71.688354    2.072970   50.982262
H   50.900871   93.377151   80.968353
H   49.505074   34.799702   30.623989
H   33.139175   98.078735   45.356506
H   41.076988   37.069942    5.898977
H   17.866051   62.804932    5.543239
H   46.738777   79.656319   84.840370
H   80.774055   33.370132   54.301620
H   69.929153   90.416100   48.468048
H   60.932350   27.445904   24.145300
H   77.421844   93.540108   13.644974
H   73.712997   24.324680   97.847031
H   70.325455   30.679987   77.826729
H   74.888054   35.202564   33.406620
H   53.028263   55.031998   16.970016
H   75.632866   27.551992   96.393097
H   52.793251   35.486298   94.579651
H   34.623482   32.132004   97.445900
H    8.722118   82.981918   14.802614
H   50.931427   99.657852   63.604939
H   36.683891   41.381779   39.374496
H   90.493629   97.324661   67.331963
H   17.219952   86.725967   39.001038
H   40.627056   61.579208   56.902687
H   86.477989   24.656452   35.797951
H   51.265118   65.092583   40.751846
H   26.557735   17.934242   24.317881
H   75.710594   35.256371   26.806143
H   89.535583   31.370005   93.499001
H   70.792900    2.511229   58.296658
H   23.129063    8.026318    4.410130
H   96.962242    1.730571   45.116524
H   86.418091   40.126854   86.891541
H   71.627594   39.156387   36.640224
H    5.201636   73.943771    0.985197
H   82.260895   12.959120   97.163460
H   52.744289   51.069420   87.083160
H   41.289513    6.509768   61.829208
H   71.670280   20.212055   16.665636
H    6.168110   73.337898    4.628690
H   56.690975   80.311417   78.855186
H    6.100471   49.432930   15.497267
H   98.887939   56.258053    6.901679
H   42.935314   73.448784   40.363113
H    5.932508   98.478104   32.672852
H   79.936943   69.827637   23.899256
H   85.710480   72.649658   95.734451
H   84.156227   81.332809   70.490860
H    3.867388    3.858680   11.879456
H   19.076485   51.582817   40.345848
H   11.967401   98.059502    1.130250
H   40.698223   87.233498   78.364426
H   14.802630   61.681164   29.046288
H   79.927505   95.048340   71.394173
H    6.215797   51.180161   22.203449
H   33.949123   44.522858   67.948914
H    9.346081   86.687943    3.231103
H   59.662468    2.169321   63.576172
H   94.722816   32.290428   33.811359
H   25.896528   33.482960   65.227341
H   10.689131   89.191643   60.456894
H   67.933014   57.209511   42.995827
H   97.517021   62.867924   84.351852
H   60.152309   34.275230   63.224892
H   94.147263   77.766991   60.546734
H   69.271271   10.381887   50.298344
H   48.658131   27.467571   13.145041
H   59.737289   40.458477   26.594610
H   20.620195   36.128021   41.010765
H   15.786263   12.001099   37.003456
H   19.437315   11.472729   69.893433
H   56.985268   29.294682    9.692791
H   95.085197   59.766380   10.434763
H   72.263878   14.601357   72.894852
H   60.143532   97.953552   97.060417
H   39.515579   45.037144   15.345265
H   17.530205   17.872759   10.181797
H   50.770142   33.021259   48.298805
H   61.490116   11.979106   14.480077
H   17.953341    3.728133   16.792107
H   88.663475   45.141266   10.069435
H   26.834015   34.991951   60.740974
H   37.193150   69.973770   19.027884
H   61.523914   18.745869    7.623662
H   88.493385   15.732765   90.666267
H   14.101974   74.969627   56.757751
H   44.306198   13.508779   82.881355
H   14.005177   11.013016    5.594380
H   75.089966   70.067017   41.480766
H    7.994545   40.957008   62.896187
H   22.358698   94.521767   13.322195
H   15.844756   72.414742   54.265522
H   51.463207   66.999588    3.279847
