100
TIME:    4.950, STEP:  4950
H   82.574379   68.081123   94.614151
H   63.768257   73.098022   90.218994
H   64.841034   30.026318   65.242226
H   82.307449   28.711052   68.838020
H   50.834351   69.521835   31.488888
H   51.263271   95.845390   68.962029
H   93.541145   95.584610   77.549454
H   30.826057   16.840328   53.702061
H   31.947487   10.371119   88.502007
H   39.569054   87.458031    1.524557
H   39.818085   65.416550   62.939495
H   66.915215   71.808617   40.582222
H   28.197281   62.254066   33.165039
H    9.986688   89.818581   33.937439
H   40.710915   27.873224   12.829739
H    2.494444   78.783890   22.147923
H   26.057686    9.375590   24.006376
H    6.920414   53.966595   27.933016
H   22.366333   86.011658   24.147646
H   59.153038    0.697174   53.351631
H   70.536705   63.430161   22.893120
H   36.941666   50.655182   97.740082
H   19.654396   54.364189   90.724228
H   59.132458   96.044647   39.443016
H   52.543365   93.599258   73.096718
H   23.981428   80.323151   24.942801
H   35.234627   36.711254   98.180946
H   14.875491   87.488983   30.392801
H   18.804405   98.195030   23.182697
H   90.798782   68.327141   76.899544
H   10.868125   65.930679   17.750694
H   78.303291   15.750241   41.017738
H   19.028294    6.317137   43.732048
H   87.250397   20.084656   63.215446
H   57.727890   84.737961   26.148849
H    2.933069   73.133812    3.864573
H   54.567825   23.256397   98.506088
H   59.397587   68.368385   71.748390
H   36.131741   73.565422   64.620483
H   96.959038   48.781250   27.489679
H   96.954788   26.030149   58.965557
H   86.742668   34.016144   35.354008
H   53.878086   93.183624   59.016556
H   63.267956   95.728394   64.720016
H   27.280207   36.589531   79.695213
H   14.225670   57.330494    3.270125
H   80.406540   94.035118   72.981865
H   56.503773   46.353363   74.855888
H    9.725479   22.490978   47.017349
H   29.694042    6.073515   37.454414
H   43.166965   91.752609    5.607800
H   45.692726    4.415965   49.104469
H   11.549180   50.710510   15.380270
H   62.057915   26.439659   50.245811
H   46.668884   92.397713   42.449848
H   99.759781    7.326803   24.117126
H   10.061177   46.716667   26.773750
H   57.468155    9.421057   86.054062
H   80.672447   47.919006   31.468479
H   32.369839    8.260777   22.820808
H   71.950378   48.373318   28.455055
H   23.230398   81.868179   71.383820
H   10.115407   69.503952   94.034088
H   82.947548   68.727905   92.745789
H   28.795725   65.496918   56.541126
H   97.259819   96.194023   38.865959
H   90.420380   19.497486    6.047684
H   38.435509    0.632376    2.841224
H    3.608196   94.110909   49.778114
H   30.673639   97.112305   91.309845
H   64.847740   58.602112    2.767884
H   65.815948   87.243958   19.037205
H   84.241791   73.458046   34.830666
H   21.240307   36.133533    9.041679
H    0.831591   35.696850   76.641449
H   42.680260   24.820894   62.855953
H   16.382513   97.512886   78.591805
H   64.540329   27.051647   87.809547
H   98.884712   38.979015   72.912468
H   56.767853   39.366016   94.474396
H    7.735817   80.491684   75.838966
H   12.729300   76.554825   72.861473
H   30.973276   89.900818    1.356101
H   90.702026   35.741623   11.311509
H   11.304973   39.259834   67.905434
H   37.367817   90.875984   85.526138
H   97.754021   43.447601   59.578644
H   35.632797    8.985891   44.265526
H   58.410263   18.564238   87.706184
H   28.691843    5.617668    1.169123
H   26.597099   40.717342   37.996746
H   44.548771   67.766617   27.845770
H    2.758145   76.046852    1.795654
H   25.663925   13.486341   60.570431
H   71.008369    6.338054   29.831020
H    2.771286    0.262223   11.775135
H   69.694664   51.750957   52.510025
H   25.035116   58.383972   76.824013
H   72.906555   58.187801   30.422653
H   46.673786   51.607151   20.891024
