100
TIME:    4.792, STEP:  4792
H   93.259438   82.570564   94.758804
H   68.131966   64.536957   80.257202
H   62.124794   18.659580   67.096199
H   82.280930   35.220757   77.497932
H   52.249542   56.857437   35.772964
H   53.713940   96.016563   53.314541
H    1.822376   84.916428   65.193649
H   43.244545    3.171560   68.209236
H   35.831429   25.562241   98.446922
H   43.886955   85.189384   95.337952
H   54.514862   59.059040   78.159348
H   72.944847   63.888847   51.829018
H   38.279617   71.808418   48.864746
H   17.809650   90.305580   21.913134
H   38.789436   41.986389   20.424767
H    8.847626   92.603104   35.263611
H   38.763069   98.925217    9.623014
H    3.541715   61.653713   33.410107
H   19.905418   79.384125   15.824053
H   63.409462    4.052515   42.594246
H   79.912651   79.158844   27.181488
H   21.794052   50.445435   11.195175
H   21.763924   55.649193   95.244644
H   73.812759   94.154175   51.178017
H   58.194489    6.129242   71.929848
H   24.701681   84.993042   39.800190
H   48.859764   43.279720   95.046791
H   28.207077   80.114075   25.169611
H   15.368833   83.859886   30.651028
H   84.740219   72.237602   64.338814
H    4.649539   51.762928   30.251152
H   68.327034   20.115173   55.644600
H    7.898809   17.876768   29.498159
H   80.574646   34.564453   69.871910
H   61.655228   96.681503   16.528198
H   89.198288   60.758717    4.361648
H   39.414185   29.043133   86.056259
H   65.927834   71.259041   60.598400
H   42.801464   77.008171   79.932037
H   11.840956   63.573257   15.058535
H    7.752831   20.609266   55.243145
H    0.942834   26.924948   27.932085
H   52.517139   92.236145   47.604614
H   73.357437   93.076752   49.272072
H   40.985111   42.822884   66.174950
H   16.264339   54.316883    2.627849
H   79.172165   85.442711   71.465416
H   56.495335   44.726013   65.079735
H    5.107327   35.576077   53.320618
H   26.380276    3.668654   48.504723
H   43.179020    7.006557    3.942177
H   38.014046   19.077219   59.477318
H    8.271878   49.794373   24.556715
H   65.717003   29.018105   43.273521
H   59.248901   78.549568   41.105778
H   99.562088    7.493004   29.495819
H    0.044846   51.275658   11.746595
H   69.233292   24.342516   90.123642
H   68.210564   41.243256   43.598839
H   42.795727   96.116394   27.314705
H   61.983765   55.720501   40.773491
H   28.837523   83.338821   78.532104
H   99.388771   80.285446    4.868645
H   72.098549   67.867218   97.034760
H   22.524401   78.115509   41.827473
H    6.965652    4.048548   29.523764
H    3.096960   14.035123   98.419235
H   49.349602   91.596329   95.287910
H   95.733780    5.463760   59.688072
H   27.472582   89.166016   91.642548
H   69.864799   69.352264    4.663344
H   78.844391   92.487640    7.469157
H   94.543518   81.274147   38.882164
H   24.718014   46.132694   18.429077
H   93.213264   35.471432   64.664154
H   38.944588   14.694559   73.487839
H    2.037071   11.207249   75.797585
H   57.117199   37.383221   79.084541
H   91.307289   39.443111   71.150108
H   64.516449   47.971684    8.086166
H    4.644003   78.857101   66.395515
H    0.874037   75.522964   86.073143
H   20.978937   87.258484   86.309662
H   79.831329   22.220922   25.741982
H   18.998537   49.143272   83.221809
H   41.004642   85.072975   74.554184
H   87.201561   54.935486   52.044617
H   33.089310   21.635389   45.908546
H   55.131454   27.360968   88.998421
H   42.661594   12.118629   95.520569
H   20.131096   32.186413   34.660076
H   32.858372   55.883347   24.835775
H   92.630104   71.304634   89.577255
H   10.392262    3.902391   49.917919
H   73.739906   20.491158   26.200825
H   89.721115    6.501194   19.936150
H   82.236107   42.683605   61.596664
H   24.455297   57.038696   79.353035
H   80.433350   57.506725   43.657227
H   36.860264   55.661060   36.111729
