100
TIME:    4.731, STEP:  4731
H   97.384682   88.164589   94.814651
H   69.816689   61.231346   76.411194
H   61.076263   14.271155   67.811974
H   82.270691   37.733879   80.841316
H   52.795914   51.968018   37.426971
H   54.660084   96.082649   47.273273
H    5.019336   80.797699   60.423367
H   48.039024   97.894226   73.809776
H   37.330925   31.427124    2.286623
H   45.553993   84.313515   92.949554
H   60.188934   56.604557   84.035400
H   75.272743   60.831215   56.171135
H   42.172165   75.497124   54.926025
H   20.829819   90.493599   17.270838
H   38.047600   47.435211   23.356976
H   11.300480   97.938370   40.327087
H   43.668312   94.890259    4.069944
H    2.237305   64.621620   35.524853
H   18.955318   76.825394   12.610514
H   65.053062    5.347937   38.441078
H   83.532478   85.231293   28.837124
H   15.945923   50.364456   16.389893
H   22.578362   56.145302   96.989868
H   79.480316   93.422577   55.708618
H   60.376251   10.967003   71.479347
H   24.979753   86.795975   45.536160
H   54.120102   45.815647   93.836769
H   33.354031   77.266800   23.153063
H   14.042346   78.325432   33.534492
H   82.401154   73.747337   59.489418
H    2.248714   46.293163   35.077278
H   64.475441   21.800362   61.291679
H    3.601952   22.339655   24.002798
H   77.997299   40.154755   72.441811
H   63.171478    1.292650   12.813896
H   83.895599   55.980991    4.553564
H   33.563728   31.277252   81.249680
H   68.449333   72.375053   56.293980
H   45.376484   78.337334   85.843460
H   17.586466   69.283669   10.259169
H   11.921593   18.516394   53.806011
H    6.425339   24.187273   25.066660
H   51.991711   91.870346   43.198738
H   77.252777   92.054749   43.307594
H   46.276165   45.229431   60.955097
H   17.051319   53.153400    2.379882
H   78.695602   82.125389   70.879951
H   56.492077   44.097733   61.305397
H    3.324349   40.627918   55.754158
H   25.100910    2.740195   52.770981
H   43.183674   12.895874    3.299120
H   35.049492   24.737562   63.482025
H    7.006546   49.440674   28.099520
H   67.129936   30.013580   40.581688
H   64.105743   73.203133   40.586864
H   99.485764    7.557170   31.572403
H   96.177429   53.035774    5.944890
H   73.775528   30.103384   91.694809
H   63.399391   38.665909   48.282089
H   46.820911   91.428024   29.049690
H   58.135895   58.557072   45.529343
H   31.002298   83.906601   81.291885
H   95.247704   84.447922    9.051598
H   67.910011   67.534927   98.690628
H   20.103193   82.987244   36.146885
H   10.712765    7.080933   25.916967
H    7.991213   11.926311   95.474228
H   53.563271   88.107742   92.371758
H   92.693832    9.846832   63.514069
H   26.236731   86.098145   91.770996
H   71.801765   73.502640    5.395116
H   83.874359   94.512100    3.003006
H   98.520767   84.291756   40.446350
H   26.060673   49.993130   22.053326
H   90.271980   35.384403   60.040005
H   37.502335   10.785025   77.592606
H   96.498795   16.494347   74.718803
H   54.251308   41.372105   75.716026
H   88.381828   39.622288   70.469704
H   67.507996   51.294125   13.341269
H    3.450328   78.226028   62.749630
H   96.297295   75.124588   91.173851
H   17.120363   86.238342   80.500626
H   75.634415   17.000841   31.313202
H   21.968908   52.959030   89.135094
H   42.408733   82.832573   70.318176
H   83.127510   59.370682   49.135910
H   32.107330   26.518991   46.542877
H   53.865585   30.757174   89.497322
H   48.055035   14.628494   93.339737
H   17.634727   28.892605   33.371868
H   28.344988   51.295502   23.673689
H   88.719872   69.473778   84.860031
H    4.496279    0.202253   45.805241
H   74.794487   25.955338   24.799294
H   84.682770    8.909916   23.086861
H   87.078056   39.182919   65.104797
H   24.231443   56.519318   80.329430
H   83.339264   57.243778   48.766777
H   33.071499   57.226177   41.988247
