100
TIME:    9.043, STEP:  9043
H    5.781213   92.735573   90.866898
H   50.730331   94.890137   48.295635
H   35.211758   24.493263   17.189320
H   82.994446   60.079033   44.485390
H   14.166128   97.593582   20.512711
H   87.786499   91.411140   74.305084
H   79.025734   71.965523   97.627541
H    9.124329   70.935562   77.895897
H   31.333672   16.844627   30.862173
H   27.763147   46.229084   61.790749
H   59.097198   30.105785   68.681099
H   10.693779   76.969536   49.238152
H   67.107544   14.627794   26.439285
H    7.326587   77.202827   45.416981
H   90.442268   62.267494   16.023514
H   37.924454   20.795250   82.392639
H   96.922646   80.094582   96.608315
H   94.443771   54.806526   86.051346
H   86.114059   57.720097   39.781506
H   48.879910   13.775797   32.022057
H   27.652275   55.958824   11.802076
H   29.341562   56.088699   49.183289
H   65.005119   21.081213   73.619354
H   78.833237   45.008759   35.462154
H    6.155499   69.006165    3.322996
H    4.967676   59.515854   39.895458
H   82.291298   66.572159   79.394882
H   69.518768   78.536377   65.688408
H    7.802097   69.543724   29.703854
H   47.741371   67.025162    2.281588
H   71.956108   32.959309   93.925720
H   36.737751    2.665390   62.108269
H    7.333006    6.853828   12.461812
H   60.190491   44.985657   90.784843
H   55.900475   74.988014   75.236893
H   58.729923   93.718552   90.996925
H   47.140076   73.360603   21.018209
H   90.228401   93.460655   60.579338
H   63.366299   84.386375   67.978546
H   11.444281   65.608879   49.519547
H   17.226503   66.467209   55.393642
H   38.119186   77.065292   41.621838
H   89.111237   17.734566   54.657261
H    1.919444   64.435890   64.909737
H   72.241837   75.111214   29.945745
H   61.396309   35.392193   19.899508
H   12.391433   16.627424   12.272852
H   56.739559   88.509964   28.106739
H   29.366188   83.508949   83.745453
H   15.596573   68.375877   51.246861
H   42.880657   96.599800   48.755997
H   44.619198   24.615368   80.419289
H   96.443352   74.443115   77.670029
H   67.272858   59.663559   30.858017
H   20.777882   51.090660   77.256180
H    4.858805    3.021365   84.781723
H   69.537689   28.614738   16.052145
H   52.695251   22.887564   80.627708
H    3.480726   20.867819   17.254007
H   62.272686   22.862965    6.406151
H   30.140398   58.028324    9.333374
H   77.964165   43.771103   86.188057
H   87.990036   90.204613   13.364807
H   64.007874   91.024063   81.622589
H   91.255035   38.594555   37.704243
H   45.823036   92.719383   80.877098
H   62.031723   60.999714    3.657522
H   55.703918   34.716866   98.510300
H    7.602823    0.014035   93.071014
H   13.683623    2.852041   82.663559
H   34.870419   80.113823   53.678139
H   28.598444   51.337303   18.894424
H   17.371429   71.005516   29.886997
H   31.137531   77.087746   65.849251
H   98.082199   41.630566   86.948059
H   39.440414   87.144524   87.450119
H   88.079910   43.106190   51.123177
H   56.829784   59.427132   13.860160
H   95.159019   26.956577   18.576509
H   56.047966   16.404081   41.858635
H   87.847191   22.836344   20.471199
H   19.875839    3.118806   30.466909
H   89.863686   58.349155   91.152321
H   72.292152   85.988136   37.478802
H   12.012268   83.226242   71.136246
H   43.167881   41.218513   69.756546
H   71.116371   45.852394   54.748344
H    1.465245   81.445168    1.816138
H   43.353519   90.672890   54.230721
H   66.817093   37.223198   47.481262
H   94.099480   61.724476   24.433739
H   47.389324   75.599564    5.834480
H   65.127243   98.848656   18.313654
H   21.236467   61.801258   36.553127
H    0.241130   39.713093   23.884077
H   40.836334   38.633179    0.365998
H   44.811272   86.638100   17.116940
H   20.822229   33.908344   97.340599
H   77.925438   75.852058   87.591225
H    0.907939   46.575207   26.598995
