100
TIME:    8.184, STEP:  8184
H   63.871574   71.509361   91.653336
H   74.454544   48.343914   94.132278
H   20.446383   62.693619   27.272110
H   82.850266   95.468742   91.569527
H   21.863390   28.740940   43.802765
H    1.103941   92.341759   89.234993
H   24.047123   13.960071   30.452625
H   76.640030   96.622520   56.766907
H   52.449532   99.434326   84.933731
H   51.225807   33.895115   28.157043
H   38.999283   95.543777   51.424736
H   43.481689   33.912060   10.383247
H   21.883339   66.618271   11.803946
H   49.858208   79.850502   80.046349
H   80.008858   38.997604   57.331169
H   72.462189   95.926292   53.697540
H   65.998421   23.279133   18.410162
H   76.075058   96.605705   15.828695
H   72.731506   21.681576   94.527649
H   72.023117   32.017879   73.537392
H   78.626564   41.474590   35.116299
H   46.988392   54.948364   22.335052
H   76.474007   28.064127   98.195541
H   58.647110   34.732635   99.258316
H   36.876778   37.128380   96.980629
H    9.019161   84.839157   20.731239
H   56.364235    2.276724   62.354763
H   41.999420   38.441151   37.291832
H   89.123772   91.608749   70.310081
H   14.804377   88.285202   33.992645
H   38.147373   55.930107   61.887047
H   82.500114   26.396893   41.630180
H   46.827259   69.702034   35.076309
H   23.895645   23.707832   26.971800
H   77.278481   40.026360   22.972944
H   84.059036   26.435392   93.697029
H   64.750145    4.818579   53.332485
H   25.732994    9.179281   99.964516
H   99.621208    3.103075   51.221764
H   92.352219   46.024933   81.935059
H   75.933273   36.994896   35.155972
H   10.511037   73.696716   97.768761
H   81.718719   12.581207   92.612648
H   56.766865   50.011505   80.923126
H   46.754044    8.995182   56.437737
H   72.483543   19.010666   16.409689
H    5.675622   69.911812    4.023669
H   56.687130   79.662537   74.957100
H    4.259033   54.650406   18.010380
H   97.565186   55.299152   11.306718
H   42.939640   79.530952   39.698853
H    2.870576    4.323996   36.808380
H   78.630531   69.462341   27.558218
H   87.169739   73.677292   92.954361
H   89.172310   75.812042   69.955414
H    3.788921    3.924950   14.024124
H   15.082721   53.400642   34.354042
H   16.658426    4.009140    2.753081
H   35.729244   84.571648   83.200745
H   18.959824   56.838596   30.838158
H   75.953476   97.978394   76.306435
H    8.451790   51.766556   25.053955
H   29.671932   48.821808   72.269012
H    5.019932   86.344757    4.941683
H   57.161636    7.201205   57.709335
H   98.593025   35.422356   30.086308
H   30.951303   31.305050   62.185772
H   15.041073   85.588676   57.445129
H   64.793396   61.736290   46.947266
H   96.237526   59.703793   84.485474
H   62.153263   38.562164   63.980476
H   99.335419   79.858788   55.929111
H   73.378922   13.498194   51.913815
H   50.044811   31.454819   16.888117
H   56.702454   40.365711   21.817892
H   19.130655   32.090065   45.249634
H   10.064464   17.454094   35.885941
H   16.477701   15.591915   66.413513
H   53.964371   29.479733    8.989717
H   98.174828   63.198235   15.862164
H   71.030525   13.949594   69.129425
H   55.416321   97.544998    2.331118
H   35.530495   43.983555    9.345288
H   13.195928   12.481606   15.935801
H   53.837662   36.962124   54.405968
H   62.940243    9.665008   10.105063
H   13.745713    8.308811   13.788033
H   87.650261   50.182823   10.722641
H   25.526402   38.499748   61.256233
H   42.763424   72.565445   16.775789
H   58.945698   15.344272    6.293158
H   83.832024   10.994619   89.465599
H   10.063658   73.079704   51.885864
H   38.217781    9.686635   78.633354
H   15.094574   16.656349    4.146777
H   69.886429   72.554871   44.734779
H   12.995127   37.341545   66.519341
H   22.480303   91.404259   14.587030
H   18.845940   72.142693   59.542599
H   47.550220   68.616501    9.348922
