100
TIME:    3.939, STEP:  3939
H   50.943512   60.794952   95.539749
H   91.699074   18.310324   26.470594
H   47.462555   57.291298   77.105309
H   82.137756   70.363274   24.252634
H   59.889786   88.485725   58.901947
H   66.943001   96.940681   68.839165
H   46.526752   27.317600   98.487862
H   10.288666   29.375553   46.528522
H   56.799797    7.574600   52.141743
H   67.198158   72.941566   61.939140
H   33.858841   24.736515   60.324230
H    5.498299   21.132120   12.546888
H   92.702850   23.392593   33.624641
H   60.044655   92.934761   57.000736
H   28.414761   18.180050   61.429958
H   43.146317   67.209709    6.069486
H    7.356164   42.504436   31.971060
H   85.312340    3.146953   62.985310
H    6.619679   43.600128   70.882858
H   86.395103   22.167181   84.518089
H   30.530869   64.078430   50.330673
H   40.016113   49.313065   83.836060
H   33.152702   62.586586   19.650726
H   53.065727   83.923798   14.528179
H   88.703400   73.777649   65.630226
H   28.594790   10.241330   19.968359
H   22.414103   78.738419   78.126320
H    0.181072   40.298904   96.972618
H   96.820129    6.469129   70.973701
H   52.031647   93.349144   96.528229
H   71.081291   75.272758   97.737801
H   14.467925   43.680183   34.611076
H   47.815731   80.286537   52.653183
H   44.534042   12.736832    5.807956
H   82.857880   61.161919   64.584412
H   15.043493   93.914398    7.090203
H   57.599648   60.281235   18.842947
H    1.187317   86.864922    0.406759
H   78.806854   95.594658   62.593849
H   92.183754   43.427460   47.947048
H   66.049011   91.341248   35.146832
H   77.606247   88.642410   87.859222
H   45.169750   87.120956   85.991722
H   27.826773   78.785461   65.868408
H   14.976946   76.477509   93.181213
H   27.269154   38.047199   99.161568
H   72.508102   39.054588   63.277939
H   56.449780   35.940384   12.300880
H   80.170334    6.222399   87.345825
H    8.490130   90.690117    8.166401
H   43.244099   89.358177   94.949005
H   96.561401   98.229141   15.473293
H   90.580925   44.848389   74.099342
H   85.474907   42.938446    5.634261
H   27.164780    3.792351   33.849499
H   98.494797    8.390631   58.533951
H   45.966587   75.888435   30.619223
H   32.749748    4.897429   12.095196
H    0.938266    5.200659    9.083549
H   99.086380   30.552755   51.576057
H    8.175463   95.391136    7.281139
H   59.111809   91.278427   17.126144
H   41.479183   38.493217   63.361412
H   13.523108   63.221687   20.195446
H   88.668098   46.242908   62.391056
H   59.366127   46.453407   79.088226
H   71.535080   84.543549   57.237408
H    8.272118   42.813309   54.509579
H   53.222702   66.754913   13.184553
H   10.190924   46.263420   93.438721
H   96.950569   27.390572   14.896709
H   49.178116   20.797592   45.017208
H   50.161591   23.467579   60.755127
H   43.499157    0.111165   69.112114
H   52.085392   34.254459    0.000404
H   18.776690   60.026955   30.885162
H   24.590277   85.140427   60.712330
H   17.041714   93.158806   31.976130
H   50.400963   41.948643   61.633980
H    6.349182   94.427132   81.572899
H   87.956253   70.032425   15.413878
H   36.872780   69.952225   57.400879
H   67.019325   73.006866    5.070262
H   21.147478   49.227974    3.650794
H   60.532806    2.496879   65.910553
H   60.638897   53.741943   15.319501
H   30.231634   16.955544   11.370220
H   19.360693   89.928520   54.778778
H   37.430038   74.855110   95.974861
H   18.077784   47.215591   65.024673
H   85.222687   86.126076   16.646280
H   69.742538   91.735893    8.582174
H   37.950951   45.707314   23.613443
H   27.946995   52.163033   92.405281
H   88.486748   96.897301    6.601583
H   19.266876   40.183907   63.994453
H   49.942871   93.731911   10.653370
H   21.325010   49.775909   93.006554
H   21.068352   53.829777   15.103889
H   83.877312   77.551064   18.283388
