100
TIME:    2.727, STEP:  2727
H   32.905914   71.941551   96.649368
H   25.413841   52.599350   50.018299
H   26.629454   70.095398   91.326927
H   81.934326   20.298010   90.686829
H   70.745560   91.338593   91.765167
H   85.732552   98.253731   48.810192
H   10.048946   45.478355    3.707840
H    5.549477   24.522326   57.810757
H   86.593071   24.103577   28.431702
H    0.320242   55.539040   14.475184
H   46.596130   75.969360   77.070541
H   51.760170   60.381073   98.818733
H   69.796761   96.719925   54.086784
H   20.055946   96.670479   64.767204
H   13.670696   26.440424   19.687441
H   91.877090   73.215668    6.676355
H    4.817983   62.339104   21.637918
H   59.419594   62.086632    5.003666
H   87.739662   92.753326    7.032509
H   19.049492   47.902866    1.999498
H    2.452652   84.735870   83.227036
H   23.820496   47.704117   87.049057
H   49.334648   72.443703   54.327972
H   65.673660   69.387787    4.542219
H   32.049919   69.896454   56.681877
H   34.154964   46.352604   33.570068
H   26.926197   29.118387   54.080761
H    2.446114   83.726860   56.913731
H   70.466675   96.507057   28.264883
H    5.559211   23.347061    0.177751
H   23.379122   66.589981   93.627388
H   37.941536   77.166573   46.812004
H   62.444988   68.962029   43.466652
H   93.322945   23.809372   56.866608
H   12.985282   52.779877   90.784248
H    9.656213   98.704338   11.265721
H   41.353737    4.666441   23.342100
H   51.278053    9.042194   14.878933
H   29.965126   21.999739   80.045837
H    6.340876   56.891350   52.589565
H   48.879810   49.752193    6.592867
H   86.533928   34.247520   30.917356
H   34.730083   79.852951   98.448112
H    5.222223   58.476913   47.365273
H   20.108908   24.298130   89.467384
H   42.905537   14.930134   94.242256
H   63.038418   73.141083   51.636185
H   56.385052   23.460333   37.309212
H   44.741524    6.600085   35.692719
H   83.076775   72.251945   92.935211
H   43.336567    6.368990   82.169891
H   37.659122   10.693592   95.038628
H   65.448051   37.820801   44.489952
H   13.543812   62.717407   52.151093
H   23.663597   97.568130   23.545057
H   96.978317    9.666004   99.793289
H   69.130516   10.860583   15.347971
H   22.998383   19.356087   43.315140
H    5.350334   53.991390    2.129538
H   79.064484   37.394558   86.048225
H   31.722433   51.752689    1.778229
H    2.127815    2.560066   71.967728
H   59.204533   21.192381   46.475510
H   30.297182   56.628700   53.104900
H   40.561604   43.043255   49.521805
H   33.821175    6.705630    7.426634
H   68.776161   42.641644   98.721085
H   91.993095   73.497070   96.568970
H   92.814781   53.841499   89.199562
H   85.633362   85.303291   95.990845
H   35.438744    9.854331   29.437344
H   49.113075   61.021286   56.280815
H   29.186586   83.417747   91.825432
H   70.179161   76.810242   41.134834
H   93.651634   32.525303    8.122734
H   90.125008   82.348259   12.437510
H   14.548529   90.188614   39.278187
H   60.099743   72.409798   65.043640
H   92.282913   45.508671   48.105873
H   65.788124   60.437229   85.987778
H   64.247391   57.493725   42.974766
H   45.934288   62.036942   58.747536
H   90.337387   52.774811   89.633240
H   37.763683   45.514496   14.348450
H   19.547073   78.309464   83.400429
H   88.528442    9.220840   31.154491
H   49.284889    5.077820   53.577225
H   99.854477   86.964310   67.384682
H   12.275389   42.336769    5.889467
H   25.234787   97.077591   21.701973
H   35.622711   20.682362   91.050980
H   80.061462    0.593114   85.484779
H   60.253529    9.344383   29.883816
H   10.802155   78.646126   10.686662
H    9.441727    5.460827   78.750694
H   19.160645   88.045479   26.596054
H   46.145676   24.177288   80.357185
H   16.877287   39.456451   12.401983
H   78.805534   48.605320   16.622711
H    8.597214    8.657970   35.036896
