100
TIME:    7.488, STEP:  7488
H   10.939598   35.335182   92.290543
H   93.676956   10.626758   50.248287
H    8.482821   12.620791   35.442753
H   82.733444   24.145298   29.719509
H   28.100054   72.953560   62.674713
H   11.897977   93.095787   20.307518
H   60.522495   66.964508   76.024506
H   31.344261   36.408886   20.670143
H   69.558540   66.352707   28.743549
H   70.235817   23.901583    0.903310
H    3.739503   67.538528   18.467787
H   70.046707   99.025574   59.924934
H   66.264809    8.747440   80.969536
H   84.320488   81.995766   27.080120
H   71.555244    1.167763   90.804718
H    0.446239   56.801147   11.471329
H   21.966805   77.243256   55.050533
H   61.195271   30.472778   39.954063
H   61.889400   92.483109   57.857273
H   90.778244   46.795773   26.150431
H   19.928177   10.762733   54.004177
H   80.262192   54.024414   81.605927
H   85.766609   33.722801   18.109613
H   23.314421   26.406466   50.950333
H   61.770332   92.323715   91.840492
H   12.300777    5.356514   86.228554
H   16.379938   31.209097   48.543301
H    0.726623    5.954216   14.285293
H   73.990105   28.461687    3.210999
H   88.116806    5.511452   78.663292
H   10.754584   93.519348   16.952278
H   38.554073   45.624615    6.062375
H   97.801033   20.624517   72.375130
H   94.487099   87.492256   56.293488
H   94.599892   92.723381   80.628067
H   23.556602   71.921021   95.884773
H   97.995987   30.309515   98.490570
H   54.498161   21.917400   50.847893
H   29.001118   18.265947   18.669456
H   57.906784   11.181502   27.174398
H   23.499575   13.115560   18.758512
H   69.166069   70.967346   62.234112
H   75.728973    8.406174   42.339298
H    1.210587   38.328270   12.872714
H    7.127651   36.453678   96.877998
H   81.468163    5.738060   13.582083
H    0.234807   32.061714   97.341026
H   56.644650   72.493958   31.892529
H   83.911873   12.294476   45.775337
H   82.951904   44.705585   59.972404
H   42.987431   46.725693   32.360352
H   69.045334   68.908737   82.496124
H   64.197792   65.426697   67.978676
H    3.289986   85.030197   62.240982
H   44.589523   14.817151   64.040009
H    2.922054    4.657074   37.717606
H   70.957520   73.483284   68.158546
H   68.483810   69.738136   20.681536
H   80.836235   55.162945   36.632149
H   64.886620    3.339811   50.634056
H   32.049908   30.345367   30.572624
H   33.154182   58.244827   56.547325
H   82.421272   96.314972   19.995819
H   57.228306   82.553375   23.839512
H   29.533638   62.791325   92.893456
H   41.347656   70.022697   88.932846
H   86.791931    7.242981   28.583452
H   63.118370   45.784477   24.172302
H   30.102905   11.746399   90.598022
H   82.102150   24.747675   85.961670
H   84.254173   85.918396   72.327888
H   56.648075    2.968320    4.914218
H   18.759584   47.924732   69.759338
H   65.364799   75.503174   58.241882
H   23.175444   39.340870   69.046906
H    2.675670   87.483543   92.082222
H   46.853230   77.695503   23.541872
H   83.780182   61.099583   27.973665
H   20.590651   31.524105    1.222413
H   32.305893    1.112111   75.823341
H   57.404915    6.749154   27.530426
H    3.190693   93.031448   60.557209
H   91.507469   32.343906   43.062790
H   65.310555   52.923702   79.503807
H   87.726456   80.501305   21.875025
H   78.955734   84.101379   61.772659
H   67.261375   58.913872   80.600044
H   76.456657    5.876318   17.939011
H   11.080388   77.252556   66.948616
H    4.298478    1.197506   91.895294
H   30.462543   77.761330   91.594650
H   32.335072   58.648422   76.201073
H   65.448730   52.197552   98.063118
H   70.951790   67.461143   31.703077
H   27.129822   79.000473   88.153229
H   12.399734    0.039725   80.683876
H   68.240135   97.400879    6.546781
H   23.823748   56.964306   28.560450
H   52.001945   69.137199   17.838436
H    4.320673   86.479538   76.397919
