100
TIME:    5.214, STEP:  5214
H   64.720863   43.870918   94.372452
H   56.476997   87.402588    6.864499
H   69.380951   49.019745   62.143238
H   82.351761   17.833580   54.366951
H   48.469727   90.682602   24.331570
H   47.168484   95.559380   95.105827
H   79.703865   13.411171   98.194595
H   10.076180   39.678890   29.461643
H   25.457863   84.988480   71.885185
H   32.354332   91.248680   11.863111
H   15.261444   76.039230   37.510723
H   56.838951   85.041649   21.790655
H   11.350845   46.289833    6.932607
H   96.915199   89.004860   54.028687
H   43.921486    4.292233    0.139145
H   91.879608   55.693558    0.233130
H    4.828210   26.836536   48.039337
H   12.565650   41.122295   18.781679
H   26.478241   97.085510   38.055424
H   52.041039   95.089882   71.325996
H   54.870567   37.147385   15.727745
H   62.251602   51.005646   75.258026
H   16.129616   52.217094   83.171127
H   34.602001   99.202850   19.835793
H   43.100983   72.664078   75.046425
H   22.777967   72.520294    0.117334
H   12.469439   25.736671    3.418911
H   92.599892   99.811615   39.120155
H   24.544762   22.146811   10.703968
H    0.921896   61.793205   97.887093
H   21.258419   89.605118   96.863853
H   94.972481    8.456464   16.577919
H   37.624332   87.001595   67.515251
H   98.404816   95.890831   52.093254
H   51.165756   64.781662   42.223862
H   25.881498   93.811180    3.034218
H   79.889099   13.587421   19.307964
H   48.486881   63.538235   90.379372
H   24.987392   67.812981   39.036621
H   72.092216   24.065815   48.261494
H   78.911942   35.087830   65.185280
H   63.015862   45.865448   47.755192
H   56.152073   94.766754   78.086098
H   46.411449    0.159550   90.533493
H    4.380213   26.174309    2.286132
H   10.819221   62.365894    4.343335
H   82.469040    8.392526   75.515678
H   56.517872   49.072479   91.190727
H   17.441727    0.627203   36.485306
H   35.230968   10.091764   18.990608
H   43.146824   66.265427    8.390866
H   58.522926   79.919525   31.772621
H   17.025272   52.241272    0.047451
H   55.944939   22.131371   61.895714
H   25.648804   15.534736   44.695637
H    0.089711    7.049101   15.129944
H   26.797012   39.099113   51.882271
H   37.809952   84.489510   79.254257
H    1.494702   59.073425   11.200993
H   14.949337   28.553440   15.312019
H   88.603455   36.097012    7.872153
H   13.861532   79.410904   59.439079
H   28.038412   51.489304   75.930817
H    1.075060   70.166016   85.579407
H   39.275093   44.410816   81.125969
H   81.041801   83.069756   54.475700
H   69.239471   28.624653   18.794258
H   20.199303   15.731433   15.461951
H   16.766310   75.141548   33.219704
H   36.021484   10.390686   90.753937
H   56.464806   40.639832   99.600899
H   44.048752   78.482361   38.366425
H   67.028778   60.398788   28.061073
H   15.429455   19.425316   93.355858
H   13.559714   36.073498   96.654144
H   48.922142   41.741425   45.093075
H   40.352375   74.632027   83.260628
H   76.943527    9.789288    2.388305
H   11.544230   38.203564   75.857170
H   43.821175   24.986908   71.730499
H   12.901648   83.222885   91.617897
H   32.538483   78.278946   50.786278
H   47.672676   94.315857   26.498571
H    8.865232   58.332443   87.198761
H   98.450035   22.745735   42.313515
H   31.291096    0.572210    3.859104
H   15.386007   24.252655   72.167145
H   39.882675   87.849548   41.520226
H   63.888779    3.865489   85.547005
H    5.350518   94.756271   10.606144
H   37.401054   54.971554   43.571941
H   64.082100   87.622208   32.875130
H   19.680758   83.967110   22.211201
H   51.180649   29.500441   78.371193
H   66.444283   82.691338   35.897312
H   24.576645   89.836945   98.138840
H   48.739342   66.901466   37.327286
H   26.003927   60.631775   72.598305
H   60.330139   59.325802    8.309189
H   63.071064   44.833530   95.459091
