100
TIME:    3.063, STEP:  3063
H   10.184326   41.128563   96.341751
H   16.067406   70.817017   71.213120
H   32.404968   94.268982   87.384300
H   81.990723    6.453955   72.270813
H   67.736038   18.270458   82.654572
H   80.523567   97.889717   82.085289
H   92.438820   68.167213   29.983528
H   79.140533   53.589588   26.959316
H   78.333549   91.798340    7.281473
H   91.137917   60.363503   27.633509
H   15.342224   89.489136   44.705616
H   38.935097   77.223114   74.901497
H   48.424362   76.391556   20.691940
H    3.419469   95.634834   90.335320
H   17.758160   96.428116    3.535846
H   78.367569   43.827972   78.785500
H   77.798866   84.564255   52.225323
H   66.598961   45.747032   93.354675
H   92.974281    6.848417   24.733332
H    9.997856   40.768711   24.875879
H   82.513962   51.286652   74.106186
H   56.033142   48.150162   58.435532
H   44.848564   69.711037   44.714935
H   34.455643   73.417572   79.588951
H   20.033619   43.248550   59.160759
H   32.614315   36.342228    2.076774
H   97.952576   15.151246   60.748363
H   74.094231   99.410210   68.020348
H   77.772583   26.991102   12.382864
H   18.442482   15.031068   26.887970
H   36.603260   96.721085   67.044136
H   59.156868   67.881660   15.706779
H   86.111176   44.378288   73.736183
H    7.519826   93.017159   42.711090
H    4.632705   27.380951   11.244522
H   38.870571   25.099184   10.110875
H   73.579964   92.361313   49.817684
H   37.391701    2.892681   38.588558
H   15.781421   14.679731   47.484558
H   74.692474   25.435198   79.025246
H   25.917116   61.280148   14.508771
H   56.336174   49.328453   46.703156
H   37.624249   81.867844   22.717636
H   83.766159   64.108826   80.217491
H   90.963066   11.042152   18.220144
H   38.570698   21.338825   95.606026
H   65.664352   91.413544   54.863602
H   56.402996   26.919744   58.099007
H   54.562202   78.771538   22.289228
H   90.121208   77.363518   69.433258
H   43.310932   73.930527   85.712616
H   53.988468   79.516068   72.982475
H   72.415581   39.769043   24.974667
H    5.763660   57.234131   66.978241
H   96.912216   27.017563   26.400076
H   97.398727    9.312885   88.355057
H   90.433006    1.164921   47.304283
H   97.979240   87.624832   34.660843
H   31.848991   68.187927   76.335732
H   56.891235   63.221584   76.491585
H   52.917274   36.128300   75.579636
H   90.202751   99.432114   56.765091
H   82.007851   98.269096   23.431381
H   53.370941   58.456459   43.981487
H   53.899372   16.206974   80.812782
H   13.180149   90.002113   27.292572
H   41.818642   54.256756   14.943824
H   68.783379   92.712891   12.631713
H    9.560625   29.698677   68.127785
H   92.441956    2.201943   95.283325
H   24.768684   86.992943   25.406277
H   21.409094   49.870163   80.880737
H    7.277845   66.796165   83.212151
H   62.785671   55.547745   21.165352
H    9.851796   33.004673   33.594639
H   98.066658    3.881746   89.828613
H   45.055729   61.067261   45.220325
H   75.885635   50.439220   83.598083
H    8.395806   44.521732   51.856239
H   49.310097   42.136570   57.041000
H   70.820145   60.969799   63.057041
H   71.145355   64.231277   30.651770
H   11.594805   58.383698   21.635380
H   60.878551   74.266449   83.659027
H    3.186100   57.293262   50.828896
H   80.796997   21.562698   54.487255
H   71.725563   80.647865   69.598953
H    5.262167   60.063187   63.888184
H   19.248985   23.629091    3.140459
H   95.527802   83.255325   33.712959
H   49.373199   38.824886   98.146683
H    4.922434   25.860933   91.888344
H   81.798904   19.421698   55.870934
H   43.278736   99.025764   33.341309
H    3.631848   75.365204   86.471886
H   46.912842   74.776924    9.241068
H   19.475868   43.459759   61.033699
H   18.110319   42.317291    7.025732
H   62.799187   50.053684   88.478157
H   29.465723    0.033836    2.670594
