100
TIME:    8.095, STEP:  8095
H   69.890373   79.671135   91.734818
H   76.912582   43.520863   88.520889
H   18.916559   56.290497   28.316776
H   82.835327   99.135429   96.447578
H   22.660894   21.607197   46.215988
H    2.484225   92.438179   80.421364
H   28.711624    7.950099   23.492710
H   83.635254   88.922478   64.938789
H   54.637321    7.991515   90.535614
H   53.656685   32.617207   24.671993
H   47.277847   91.962646   59.997314
H   46.878807   29.450924   16.718128
H   27.558556   72.005585   20.648470
H   54.265022   80.124825   73.273842
H   78.927864   46.947525   61.611008
H   76.040604    3.710608   61.085236
H   73.155251   17.392742   10.308141
H   74.172455    0.936447   18.913795
H   71.344955   17.947666   89.838364
H   74.421402   33.907581   67.477852
H   83.907951   50.335072   37.531559
H   38.455875   54.830215   29.914230
H   77.662285   28.787619    0.741905
H   66.916611   33.667938    5.868244
H   40.060005   44.186752   96.323341
H    9.438793   87.462875   29.106564
H   64.039154    5.976448   60.588642
H   49.508659   34.286930   34.349655
H   87.188576   83.533890   74.517265
H   11.391811   90.487930   26.917542
H   34.644329   47.949631   68.928444
H   76.880577   28.855610   49.869362
H   40.557903   76.213799   27.058485
H   20.134914   31.864174   30.720987
H   79.493431   46.764915   17.557791
H   76.322327   19.464273   93.976784
H   56.214176    8.078196   46.319607
H   29.411564   10.808071   93.683617
H    3.378034    5.042006   59.846626
H    0.735315   54.357140   74.933044
H   82.015900   33.941360   33.059170
H   18.011574   73.347702   93.224785
H   80.952789   12.047331   86.183723
H   62.449551   48.516991   72.220856
H   54.473854   12.506388   48.821213
H   73.632439   17.313465   16.048113
H    4.979886   65.071785    3.168916
H   56.681698   78.745865   69.450279
H    1.657641   62.021126   21.560616
H   95.696533   53.944515   17.529690
H   42.945751   88.123222   38.760452
H   98.545074   12.582567   42.650635
H   76.784966   68.946289   32.727180
H   89.231232   75.129028   89.026932
H   96.258522   68.012863   69.198990
H    3.678072    4.018569   17.053894
H    9.440606   55.968681   25.889427
H   23.285284   12.414301    5.045632
H   28.709736   80.811256   90.033005
H   24.832634   49.997509   33.369530
H   70.339371    2.117418   83.245979
H   11.610573   52.594955   29.080860
H   23.629707   54.894928   78.372009
H   98.908440   85.859940    7.358216
H   53.628716   14.309786   49.421265
H    4.060238   39.846825   24.823933
H   38.091888   28.228088   57.888958
H   21.188911   80.498772   53.190414
H   60.357506   68.131264   52.529457
H   94.429985   55.233829   84.674240
H   64.979774   44.618309   65.047890
H    6.664275   82.813866   49.405804
H   79.181793   17.900595   54.195988
H   52.003773   37.087292   22.175955
H   52.415146   40.234661   15.069853
H   17.026384   26.385986   51.237877
H    1.981223   25.157532   34.307228
H   12.296809   21.411083   61.497784
H   49.696754   29.741154    7.996487
H    2.539413   68.046410   23.529610
H   69.288170   13.028848   63.810013
H   48.738197   96.967834    9.776814
H   29.900900   42.495152    0.869201
H    7.072900    4.865591   24.064304
H   58.171143   42.529377   63.033546
H   64.988510    6.395885    3.924490
H    7.801604   14.780005    9.544182
H   86.218895   57.305023   11.645424
H   23.679138   43.455208   61.984138
H   50.632542   76.226700   13.594387
H   55.303455   10.538705    4.413556
H   77.246925    4.301095   87.769417
H    4.358680   70.409813   45.003357
H   29.616590    4.287158   72.632210
H   16.633564   24.628677    2.101750
H   62.535400   76.069458   49.331718
H   20.059343   32.233986   71.637764
H   22.652094   87.000160   16.373861
H   23.085716   71.758369   66.997246
H   42.022350   70.900711   17.922726
