100
TIME:    5.423, STEP:  5423
H   50.586830   24.704811   94.181107
H   50.704750   98.727036   20.042622
H   72.975052   64.056290   59.689236
H   82.386841    9.222248   42.910156
H   46.597733    7.434793   18.665359
H   43.926777   95.332954   15.803907
H   68.749352   27.524403   14.538743
H   93.649185   57.759418   10.271432
H   20.320244   64.894043   58.729561
H   26.643427   94.249611   20.047903
H   95.820786   84.448853   17.379032
H   48.861450   95.517799    6.914347
H   98.014114   33.651482   86.165215
H   86.566612   88.360664   69.933662
H   46.463188   85.623459   90.093506
H   83.476364   37.413712   82.884491
H   88.021645   40.659634   67.065430
H   17.034849   30.953808   11.536871
H   29.733501    5.853247   49.065746
H   46.410706   90.650673   85.555702
H   42.468208   16.340187   10.055157
H   82.288635   51.283096   57.459732
H   13.338784   50.517311   77.191589
H   15.182747    1.703097    4.313457
H   35.625763   56.089630   76.589943
H   21.825228   66.343033   80.462997
H   94.447342   17.048801    7.566119
H   74.964241    9.566994   46.029312
H   29.089211   41.108707    0.824835
H    8.935635   56.620506   14.501617
H   29.483871    8.346854   80.328438
H    8.168789    2.682407   97.229805
H   52.346752   71.709923   86.343620
H    7.235732   76.737175   43.288185
H   45.970734   48.982925   54.949913
H   44.049458   10.181107    2.376905
H   99.935699    5.932816   35.776409
H   39.849239   59.712925    5.128418
H   16.164783   63.258965   18.783251
H   52.406925    4.499735   64.705956
H   64.628021   42.258492   70.109230
H   44.232140   55.246147   57.572796
H   57.952312   96.020065   93.183235
H   33.066715    3.667683   10.968583
H   86.250450   17.928925   20.171328
H    8.122232   66.352249    5.192706
H   84.101852   19.759228   77.521614
H   56.529034   51.225113    4.122442
H   23.550423   83.316895   28.147808
H   39.614368   13.272879    4.373379
H   43.130878   46.088074   10.594127
H   68.680168   60.526402   18.051575
H   21.360836   53.453125   87.909782
H   51.105499   18.720642   71.118553
H    9.007351   33.850552   46.473553
H    0.350044    6.829253    8.015091
H   40.046074   33.068550   71.759850
H   22.247707   64.752251   73.871078
H   17.977674   67.904182   95.156258
H    1.157732   44.618465    9.367561
H    1.787195   26.377808   91.576500
H    6.444471   77.465561   49.981842
H   42.228031   37.227707   61.599060
H   15.426845   71.304520   79.906021
H   47.571503   27.717747    0.588989
H   68.202538   72.679710   66.833412
H   52.471252   35.849903   28.885326
H    5.762023   27.684927   25.453360
H   27.183462   60.124138   20.110962
H   40.254997   20.902927   90.313843
H   49.828316   26.419693   97.094276
H   26.816280   71.546097   53.669258
H   53.401810   50.061363   22.701813
H   10.829197    6.197808   80.937553
H   23.636335   36.371677   12.498058
H   53.863632   55.137184   31.030741
H   59.329037   56.517353   86.956779
H   86.762726   96.123390   13.930890
H   21.566113   37.589664   78.188393
H   33.573044   13.601953   53.724915
H   16.991350   85.385086    4.109391
H   48.222214   79.639816   33.307236
H   60.893036   97.811096   46.403255
H   23.244028   76.216843   68.108887
H   88.273659    9.672267   22.053246
H   26.480358    8.249141   18.372971
H   29.344641    9.056646   82.133041
H   43.245750   71.120483   39.349648
H   68.225937   92.228676   83.837654
H   86.872620   86.158493   18.077089
H   45.954185   66.256454   47.985638
H   79.545982    3.341097   36.856705
H   33.078110   90.236855   38.373493
H   71.379311   42.180248   92.463768
H   62.831047   63.971394   40.700077
H   41.839172   81.583588   87.343781
H   32.149712   78.895622   25.307617
H   26.770903   62.411285   69.252953
H   50.373810   60.226719   90.803551
H   76.053726   39.471081   75.326385
