100
TIME:    3.000, STEP:  3000
H   14.444704   46.905998   96.399429
H   17.819862   67.401505   67.239090
H   31.322058   89.736435   88.123543
H   81.980148    9.049715   75.723816
H   68.300323   13.220731   84.362808
H   81.500252   97.957970   75.846428
H   95.740898   63.913437   25.056847
H   84.092209   48.139477   32.743961
H   79.882210   97.855515   11.247211
H   92.859612   59.458916   25.166323
H   21.202332   86.954178   50.773846
H   41.339798   74.065231   79.385979
H   52.431557   80.203125   26.953632
H    6.538779   95.829018   85.541298
H   16.991760    2.055519    6.564258
H   80.900604   49.338165   84.014992
H   82.864937   80.397003   46.490185
H   65.253136   48.810707   95.538757
H   91.992790    4.205373   21.414431
H   11.695038   42.106365   20.586542
H   86.252472   57.558678   75.816345
H   49.993271   48.066528   63.800568
H   45.689705   70.223412   46.517380
H   40.309021   72.661987   84.267616
H   22.286674   48.244926   58.695969
H   32.903187   38.219173    7.981752
H    3.385067   17.770117   59.498188
H   79.410240   96.469582   65.938164
H   76.402725   21.275431   15.360743
H   16.026966   16.590378   21.879818
H   34.123577   91.071503   72.028496
H   55.178993   69.622581   21.539009
H   81.673798   48.987740   68.060646
H    4.857856   98.790749   45.365250
H    6.198849   32.143250    7.408439
H   33.393063   20.150152   10.327409
H   67.537209   94.668442   44.853512
H   39.995392    4.045704   34.143009
H   18.440857   16.052233   53.589798
H   80.626602   31.333036   74.068764
H   30.222555   59.118656   13.024638
H   61.998253   46.500778   43.743301
H   37.081593   81.490051   18.167065
H   87.789215   63.052879   74.057457
H   96.428078   13.527723   12.828914
H   39.383480   20.137196   95.350319
H   65.172165   87.987457   54.258461
H   56.399632   26.271105   54.200920
H   52.720825   83.989494   24.802317
H   88.800377   76.405098   73.839874
H   43.315739   80.012695   85.048355
H   50.926716   85.361755   77.118004
H   71.109169   39.403748   28.633629
H    7.222439   58.262245   64.198151
H    1.928272   21.496315   25.864389
H   97.319901    9.379095   90.499725
H   86.438789    2.982836   41.312477
H    2.670347   93.574341   36.283524
H   26.880493   65.526077   81.172050
H   61.048393   58.379017   78.283455
H   48.943245   39.057873   80.491898
H   92.438744    0.018512   59.615837
H   77.731010    2.568125   27.751480
H   49.044594   58.113754   45.692127
H   51.398540   21.238678   74.945946
H   17.050270   93.134041   23.567760
H   46.873177   52.078922   11.902019
H   73.135201   89.109924    9.619948
H    6.420617   34.225456   72.078743
H   91.165344   99.033272   95.415985
H   26.769398   91.279396   26.162102
H   26.603739   51.960999   76.268402
H   11.385725   69.912712   84.827141
H   64.172295   59.534752   24.909630
H    6.814414   32.914791   28.818722
H   96.577599   99.843987   94.067963
H   39.335491   66.527725   44.106174
H   72.925781   54.558887   80.119125
H    5.374841   44.706783   51.153046
H   52.399727   45.567944   62.468521
H   69.587753   60.318035   59.291615
H   66.418625   63.819839   35.919777
H    7.608879   57.332031   15.634930
H   56.544514   68.875458   89.413391
H    6.253793   61.234127   56.936058
H   82.246643   19.248600   50.112362
H   67.517937   85.228477   66.594879
H    4.248232   65.107147   64.543709
H   17.941372   27.136648    3.655898
H    1.097664   85.847000   31.461048
H   46.794983   35.423313   96.816238
H    0.260713   21.123148   90.687675
H   77.760468   17.531294   50.999046
H   37.189358   95.204582   29.093624
H    4.721186   81.008057   85.024162
H   41.709305   77.264778   12.495201
H   24.476330   39.844296   64.656853
H   17.879126   41.780884    8.033779
H   65.800377   49.782116   93.754753
H   25.552736    1.650329    8.739665
