100
TIME:    9.492, STEP:  9492
H   75.416901   51.559883   90.455826
H   38.329666   19.221012   76.606682
H   42.929630   56.796257   11.918373
H   83.069809   41.580803   19.873312
H   10.142763   33.582642    8.339308
H   80.825684   90.924706   18.770088
H   55.493114    2.282303   32.739941
H   73.833817    9.781132   36.669975
H   20.296394   73.674820    2.599204
H   15.497793   52.676060   79.370918
H   17.332306   48.172211   25.429758
H   93.556801   99.475716   17.278111
H   38.476395   87.450493   81.818527
H   85.094742   75.818886   79.585762
H   95.895821   22.160591   94.430931
H   19.870399   81.523849   45.122131
H   60.816841    9.793583   37.482559
H    4.047774   32.958061   70.485428
H   93.109131   76.555176   63.435261
H   36.784122    4.240644   62.592094
H    1.007514   11.258898   99.614410
H   72.387634   56.684753   10.946762
H   59.010323   17.431238   60.773361
H   37.114094   50.380096    2.115211
H   90.096664   33.397552    6.637306
H    2.849684   46.279343   97.642128
H   43.573380   47.906544   88.301437
H   31.634565   99.494186   80.528099
H   17.565762   10.280704    8.480560
H   64.958427   55.912521   37.974953
H   89.625343   73.221146   58.402267
H   65.087997   90.258514   20.542061
H   38.961319   74.002625   52.911278
H   79.161453    3.837583   71.868690
H   44.726173   40.992378    2.552867
H   97.761185   28.887171   89.585579
H   90.205353   56.917732   56.397785
H   71.668510   85.246071   92.265755
H   44.412464   74.602867   24.466896
H   69.152328   23.573494   84.845718
H   86.540848   81.875549   65.971886
H    0.279678   78.826050   64.542595
H   92.975311   20.428799   87.089836
H   73.253822   71.972206    8.811534
H   33.295486   57.399593   68.370193
H   55.603622   43.956188   21.723639
H   15.901814   41.047436   16.584707
H   56.766964   93.134521   55.888340
H   42.489655   46.322285   65.836426
H   25.020430   75.213371   19.851917
H   44.134571   53.349640   51.516556
H   66.440262   82.952164   50.945442
H    5.755644   77.046570   51.592850
H   56.875092   52.336205   50.671577
H   85.027443   90.438202   81.072296
H    5.418034    2.549061   69.496704
H   98.004410   15.659103   58.755653
H   19.262068   80.484657   69.062889
H   38.893230   39.841202   82.784782
H   32.644688   57.375866   93.635536
H   58.466557   37.149303   74.329796
H   62.028282   39.591873   65.874260
H   18.472137   59.566063   82.575531
H   94.838257   93.469940   69.434311
H    9.075904    2.732031   79.517097
H   18.240974   70.398186    7.425696
H   26.007847   76.523865   25.336338
H   24.688553   60.395149   19.975098
H   29.981943   67.751755   64.912598
H   22.802567   25.403254   81.711243
H   20.611023   49.562717   48.293098
H   91.624214   36.429100   51.804829
H   88.095917   48.796284   18.373562
H   21.254681   48.670834   39.170692
H   19.709875   42.291706   20.991278
H   50.056343   15.920524   57.237114
H   28.859188    4.242820   59.087692
H   77.923454   30.069756   38.658066
H   16.690191   25.637722   23.588160
H   34.028221   91.944588    3.177016
H   96.637276   27.481455   47.307335
H   53.567215    6.033562   92.903267
H   18.263105   65.858070   33.913273
H    3.184014   24.410381   96.470421
H   90.150101   55.137421   27.610769
H   32.832851   57.712769    0.936361
H    1.104065   13.206370   76.158333
H    8.685869   45.517494   97.162872
H   52.671146   65.672874   50.558479
H   27.118288   18.748947   63.530190
H   12.474924   85.970535   33.915794
H   80.610779    9.368792   14.388307
H   93.909119   12.321188   53.035515
H   63.344215   88.943344   68.802162
H   92.478683   99.493263   34.200630
H   77.921860   20.903357   77.174683
H    9.172282   12.405036   91.294174
H   19.955553   56.123348   88.324425
H   56.536003   77.790947   49.983730
H   28.796196   35.054920   83.345581
