100
TIME:    4.700, STEP:  4700
H   99.481117   91.007454   94.843033
H   70.672859   59.551407   74.456665
H   60.543404   12.040973   68.175728
H   82.265488   39.011040   82.540413
H   53.073578   49.483231   38.267532
H   55.140911   96.116234   44.203121
H    6.644020   78.704575   57.999126
H   50.475563   95.212189   76.655952
H   38.092964   34.407639    4.238018
H   46.401176   83.868401   91.735779
H   63.072479   55.357197   87.021591
H   76.455772   59.277336   58.377785
H   44.150345   77.371712   58.006348
H   22.364658   90.589149   14.911639
H   37.670601   50.204285   24.847115
H   12.547012    0.649745   42.900330
H   46.161140   92.839706    1.247890
H    1.574408   66.130089   36.599560
H   18.472481   75.525055   10.977404
H   65.888420    6.006266   36.330452
H   85.372063   88.317291   29.678513
H   12.973923   50.323303   19.029831
H   22.992256   56.397423   97.876785
H   82.360550   93.050781   58.011055
H   61.485016   13.425537   71.250404
H   25.121069   87.712219   48.451160
H   56.793388   47.104397   93.221840
H   35.969608   75.819824   22.128260
H   13.368230   75.512840   34.999916
H   81.212448   74.514580   57.024971
H    1.028621   43.513447   37.529900
H   62.518078   22.656769   64.161507
H    1.418303   24.607679   21.210073
H   76.687500   42.995728   73.747826
H   63.942032    3.636063   10.926300
H   81.200790   53.552967    4.651095
H   30.590490   32.412582   78.806992
H   69.730751   72.942207   54.106487
H   46.685101   79.012810   88.847626
H   20.506315   72.185661    7.820147
H   14.040142   17.452803   53.075665
H    9.211517   22.795996   23.610460
H   51.724689   91.684448   40.959686
H   79.232376   91.535370   40.276466
H   48.965061   46.452431   58.302387
H   17.451260   52.562122    2.253865
H   78.453415   80.439537   70.582420
H   56.490421   43.778442   59.387291
H    2.418245   43.195248   56.990875
H   24.450741    2.268355   54.939079
H   43.186039   15.888805    2.972321
H   33.542915   27.614130   65.517029
H    6.363501   49.260925   29.899961
H   67.847984   30.519478   39.213707
H   66.573975   70.486092   40.323154
H   99.446976    7.589779   32.627716
H   94.212021   53.930260    2.996486
H   76.083878   33.030998   92.493271
H   60.954575   37.356110   50.662102
H   48.866497   89.045410   29.931404
H   56.180420   59.998608   47.946251
H   32.102440   84.195145   82.694397
H   93.143227   86.563278   11.177361
H   65.781410   67.366058   99.532135
H   18.872744   85.463043   33.260029
H   12.617035    8.621981   24.084005
H   10.478483   10.854619   93.977585
H   55.704643   86.334854   90.889778
H   91.148941   12.074295   65.458252
H   25.608675   84.539062   91.836273
H   72.786125   75.611847    5.767001
H   86.430573   95.540924    0.733312
H    0.542021   85.825294   41.241264
H   26.743130   51.954990   23.895226
H   88.777229   35.340176   57.690029
H   36.769386    8.798212   79.678635
H   93.684311   19.181232   74.170570
H   52.794872   43.399242   74.004158
H   86.895119   39.713345   70.123924
H   69.028290   52.982578   16.011894
H    2.843706   77.905319   60.896801
H   93.971443   74.922134   93.766014
H   15.159449   85.719910   77.548492
H   73.501556   14.348049   34.144478
H   23.478441   54.898186   92.140205
H   43.122288   81.694008   68.165451
H   81.057091   61.624634   47.657715
H   31.608385   29.000822   46.865242
H   53.222275   32.483147   89.750862
H   50.795963   15.903999   92.231445
H   16.366081   27.218697   32.717205
H   26.051184   48.964111   23.083055
H   86.732704   68.543343   82.462753
H    1.499959   98.321976   43.715191
H   75.330421   28.732216   24.087040
H   82.122299   10.134039   24.688042
H   89.538719   37.403881   66.887619
H   24.117682   56.255371   80.825630
H   84.816040   57.110149   51.363434
H   31.146059   58.021564   44.974674
