100
TIME:    7.401, STEP:  7401
H   16.822954   43.313545   92.370193
H   96.079758    5.912218   44.762333
H    6.987319    6.361891   36.464275
H   82.718842   27.729919   34.488445
H   28.879637   65.980125   65.033707
H   13.247230   93.190041   11.691616
H   65.082001   61.089924   69.220993
H   38.182289   28.882542   28.658463
H   71.697166   74.717377   34.220013
H   72.612068   22.652391   97.496834
H   11.832031   64.037872   26.848055
H   73.366821   94.664688   66.117790
H   71.812492   14.013193   89.615639
H   88.628273   82.263924   20.459141
H   70.498543    8.939018   94.989044
H    3.944531   64.410461   18.693235
H   28.962807   71.488480   47.130581
H   59.334759   34.706223   42.969513
H   60.534672   88.833771   53.274029
H   93.122635   48.643009   20.227060
H   25.090881   19.424103   56.365162
H   71.921417   53.908920   89.014786
H   86.928185   34.430367   20.599035
H   31.397989   25.365694   57.412010
H   64.882027   99.222809   91.197975
H   12.710979    7.920940   94.415337
H   23.882055   34.825836   46.816868
H    8.067281    1.893369   11.409398
H   72.098396   20.568617    7.323390
H   84.780762    7.664846   71.746941
H    7.330427   85.717545   23.835442
H   33.060818   48.028080   14.116386
H   91.673225   26.989618   64.537483
H   90.811211   95.465309   59.958755
H   96.765068   99.310509   75.335266
H   15.994083   65.106888   96.158241
H   89.651230   33.495728   91.635284
H   58.093735   23.509754   44.708801
H   32.673687   20.161306   27.100170
H   66.101036   19.326235   20.329401
H   29.445181   10.130643   16.708830
H   76.497932   70.626175   57.792912
H   74.980255    7.884295   36.055508
H    6.765676   36.868004    4.366463
H   14.674240   39.885967   89.433296
H   82.591240    4.078916   13.228632
H   99.554977   27.330124   96.506020
H   56.639339   71.597885   26.509457
H   81.368355   19.499561   49.246124
H   81.125244   43.381390   66.055519
H   42.993404   55.124878   31.443241
H   64.817200   76.981354   88.207092
H   62.393108   64.922241   73.031197
H    5.304489   86.449310   58.401810
H   51.516495    7.192737   63.299953
H    2.813696    4.748590   40.679291
H   65.441696   75.993614   59.884148
H   74.962082   77.954124   22.922712
H   73.975639   51.486393   43.310875
H   70.628120   96.652817   53.108543
H   26.561632   34.391106   37.355560
H   36.241982   59.054611   60.484070
H   76.515160    2.251689   25.961670
H   51.253826   82.079453   26.201824
H   26.080441   69.739655   84.791634
H   46.692230   74.347740   83.788727
H   93.772003    4.235248   24.382864
H   69.128029   40.808952   20.013199
H   25.766579   17.997665   96.054108
H   80.335228   20.378160   86.146194
H   87.016731   91.837784   73.371315
H   63.812008    5.857158   98.537178
H   24.432386   52.227871   71.989563
H   67.280403   81.009705   63.411224
H   18.984812   39.212765   62.450489
H    0.618809   81.907982   97.936562
H   38.951862   85.225166   21.998968
H   79.692764   66.788322   23.168726
H   16.418936   31.779652    0.251481
H   36.572525    5.851583   83.318489
H   55.701714    5.849099   22.330551
H   96.662178   92.467255   67.835655
H   86.004921   30.888952   34.777107
H   59.325306   45.479000   87.450310
H   91.962555   85.944115   30.308393
H   80.957626   80.906052   55.731140
H   61.450840   65.239479   76.451561
H   75.057457   12.838137   18.841057
H    9.274636   82.096657   67.660164
H   11.990596    4.777149   88.784927
H   26.902149   73.063255   89.757370
H   25.897951   52.105103   74.543007
H   59.871845   49.586994   91.335274
H   62.543427   62.182945   25.836832
H   28.634228   86.792984   86.153992
H    5.213865    3.475124   85.177513
H   75.145866   92.408096   11.550349
H   23.991678   52.659840   30.307127
H   56.146446   68.761513   25.125828
H   98.916786   88.712418   84.778519
