100
TIME:    3.979, STEP:  3979
H   48.238434   57.126740   95.503128
H   90.586403   20.479063   28.993792
H   48.150116   60.169106   76.635948
H   82.144470   68.715324   22.060099
H   59.531509   91.691902   57.817352
H   66.322884   96.897346   72.800346
H   44.430500   30.018711    1.615926
H    7.144745   32.835941   42.855732
H   55.816521    3.728700   49.623737
H   66.105019   73.515907   63.505608
H   30.138138   26.346012   56.471386
H    3.971505   23.137125    9.699751
H   90.158295   20.972538   29.649021
H   58.064064   92.811470   60.044865
H   28.901363   14.607174   59.507046
H   41.538040   63.711174    2.749059
H    4.139574   45.150005   35.612419
H   86.166832    1.201724   61.598286
H    7.242658   45.278290   72.990402
H   85.317223   21.317724   87.241478
H   28.157211   60.096195   49.245163
H   43.850952   49.366165   80.429688
H   32.618645   62.261269   18.506165
H   49.349297   84.403534   11.557369
H   87.272736   70.605652   65.925636
H   28.411226    9.049542   16.219122
H   18.964853   77.075821   78.919777
H   96.805847   42.165970   98.294640
H   97.689880   10.098203   69.082832
H   53.565460   92.359154   99.708160
H   72.655388   78.859795   94.573128
H   16.993513   42.575142   30.908073
H   50.633419   77.359901   56.256699
H   46.224106    9.071136    4.122890
H   81.863617   58.138237   67.020325
H   18.521734   97.056488    6.952149
H   61.436012   58.816391   21.994802
H   99.534050   86.133110    3.229368
H   77.118622   94.723076   58.717506
H   88.416054   39.682648   51.094326
H   63.315247   92.713928   36.089214
H   74.011276   90.437454   89.738495
H   45.514294   87.360825   88.881126
H   25.272604   79.455627   69.779541
H   11.507250   74.899139   96.604065
H   26.753101   38.810139   99.323921
H   72.820602   41.229881   63.662155
H   56.451916   36.352371   14.775856
H   81.339767    2.909684   85.750366
H    9.329059   91.298637    5.368818
H   43.241047   85.496483   95.370758
H   98.505371   94.517593   12.847256
H   91.410393   45.080322   71.776344
H   84.548393   42.285675    7.399245
H   23.979965    7.297906   34.189770
H   98.544846    8.348516   57.172256
H   48.502293   74.734261   34.423546
H   29.771233    1.119849   11.064846
H    4.092871    6.890837    6.012718
H   96.446609   33.627399   50.438362
H   10.698732   93.530785    4.162472
H   57.692131   90.906113   15.316176
H   44.194942   35.763725   60.618492
H   16.269842   63.439278   19.109325
H   90.255623   43.048023   66.116035
H   56.908852   44.464882   81.453339
H   68.325851   85.926605   59.168560
H    5.508980   45.100906   56.421810
H   55.216415   63.880768   10.675779
H   11.001318   48.275444   93.354492
H   95.680428   24.668861   14.416821
H   45.880081   19.470078   47.945980
H   47.553558   21.489124   59.729431
H   42.618420   97.580025   66.735405
H   54.013798   34.311527    3.032750
H   19.722429   62.590736   28.193665
H   28.222021   81.673630   61.419727
H   18.920986   90.543449   34.185295
H   52.318993   41.831150   62.080452
H    4.387474   92.248787   78.126854
H   88.738724   70.446243   17.804491
H   39.874184   70.213455   54.056152
H   69.549843   73.674591    8.880047
H   23.899401   52.650826   99.997482
H   58.585175   99.994804   62.032990
H   59.718182   55.211365   18.097229
H   32.903145   14.047218   13.277645
H   20.004461   86.726006   54.362823
H   38.260117   72.627937   95.647713
H   14.541223   45.569778   66.454727
H   86.859650   88.286110   17.491007
H   72.702133   94.743706    9.344427
H   40.515038   46.907570   26.706705
H   31.813267   54.589485   95.102425
H   87.795219   93.314537    7.520696
H   22.570709   38.604317   61.928413
H   46.767822   96.027443    8.352879
H   21.471800   50.116486   92.366295
H   19.162834   54.002201   11.753365
H   86.362053   76.524452   14.430055
