100
TIME:    6.766, STEP:  6766
H   59.765213    1.546376   92.951553
H   13.615768   71.504677    4.722774
H   96.070160   60.677010   43.920216
H   82.612259   53.891510   69.296631
H   34.568604   15.082075   82.251648
H   23.096096   93.877983   48.806217
H   98.364853   18.209789   19.563166
H   88.092033   73.946289   86.962105
H   87.306679   35.770157   74.192116
H   89.955971   13.534403   72.634010
H   70.898193   38.487110   88.014061
H   97.599838   62.835239   11.317997
H   12.314255   52.436001   52.717705
H   20.069195   84.221169   72.136421
H   62.785835   65.660362   25.525921
H   29.478245   19.950050   71.403809
H   80.025581   29.489208   89.324013
H   45.755161   65.605499   64.979042
H   50.646709   62.197472   19.821613
H   10.231102   62.125713   76.993370
H   62.772690   82.640717   73.600334
H   11.043350   53.065948   43.090866
H   95.406349   39.594780   38.768051
H   90.398979   17.769258    4.570965
H   87.593819   49.583038   86.508339
H   15.703077   26.639313   54.172165
H   78.639656   61.224419   34.215893
H   61.645340   72.253716   90.420334
H   58.291100   62.956402   37.338959
H   60.431477   23.381584   21.266041
H   82.340614   28.776207   74.074623
H   92.966736   65.571045   72.901558
H   46.945423   73.449699    7.331669
H   63.981453   53.659164   86.710999
H   12.569042   47.388893   36.700478
H   60.794399   15.370759   98.154243
H   28.746773   56.750122   41.599583
H   84.341042   35.132107   99.900368
H   59.479221   33.995598   88.636917
H   25.912201   78.773407   70.370224
H   72.843552   88.341408    1.749613
H   30.012451   68.136017   25.376759
H   69.515472    4.075176   90.189598
H   47.310940   26.209738   42.279152
H   69.754509   64.937912   35.095524
H   90.788414   91.967941   10.648848
H   94.594040   92.795547   90.411430
H   56.600758   65.057587   87.219681
H   62.803909   72.089149   74.576859
H   67.792725   33.716282   10.452785
H   43.037006   16.429865   24.750336
H   33.953915   35.904991   29.890602
H   49.220463   61.240295    9.909468
H   20.008049   96.807205   30.380405
H    2.075503   51.545357   57.898151
H    2.022804    5.416548   62.296188
H   25.187197   94.316139   99.490242
H   22.245283   37.922615   39.279648
H   23.897301   24.651791   92.057899
H   12.533392   47.846050   71.169456
H   86.504814   63.919342   86.865433
H   58.779366   64.965103   89.213531
H   33.403889   45.583656   69.505524
H    7.648341   78.620361   43.443989
H    0.875896   20.454689   25.657381
H   85.701477    5.915358   46.242569
H   44.719955   82.279816   93.724014
H   12.991989    4.491566   89.656525
H   94.117775   63.624725   35.881161
H   67.460167   88.452080   87.485870
H    7.180834   35.042953   80.987129
H   16.079763   26.974792   51.997383
H   65.835342   83.632812   88.267639
H   81.262108   21.199661    1.141421
H   88.387077   38.287731   14.306667
H   85.609871   41.210079   40.663353
H   81.279877   40.186520   10.737543
H   49.859310    8.307680   88.100288
H   85.967461   33.644848   93.168449
H   67.714035   40.444008   38.024162
H   43.273048   99.279037   84.377319
H   49.011574   88.349289   20.961224
H   45.840454   20.269445   74.303513
H   15.640050   91.140160   45.447102
H   22.881208   25.667694   91.864647
H   95.569138   57.582497   11.634875
H   19.040636   11.409356   46.172401
H   64.844902   63.652920   25.424957
H   96.095810   17.452345   72.853645
H   68.134293   30.904430   66.082825
H    0.915228   38.776276   76.347336
H   78.914383    4.347545   62.441658
H   19.166965   30.532925   42.229744
H    1.175059   23.658167   83.020020
H   39.612984   43.672997   71.561859
H   52.765457   28.549192   17.976486
H   25.548918   55.966522   48.070648
H   25.217379   21.241356   43.053764
H   86.396538   66.019432   78.314110
H   59.472073    5.008950   45.950649
