100
TIME:    0.941, STEP:   941
H   53.686195   35.726753   98.284500
H   75.094597   55.765850   37.358181
H   95.932129   41.602962   12.290985
H   81.634552   93.880028   88.583855
H   86.742599   48.182823   40.190254
H   13.424488    0.189503   71.936607
H    3.653432   24.878172   64.040199
H   45.925552   70.009598   21.794212
H   30.496422   95.819977   40.854607
H   49.124504   29.895283   44.539597
H   12.725494    4.105791   49.107208
H   19.924305   70.858208   25.947294
H   83.405045    4.775494   31.601431
H    8.489002    2.175948   28.850582
H   91.946892   85.970703    5.538553
H   63.688675   29.430157   54.929184
H   48.411537   44.226822   59.030937
H   21.252892   48.939896   66.923630
H   59.917168   17.828638   12.938990
H   67.177376   85.802887   80.384956
H    8.436264   62.538795   31.704220
H   52.577076   45.341949   39.131260
H   73.180321   86.969124    5.426208
H   31.612457   47.967564   37.188011
H   95.929070   11.546124   43.505440
H   42.344250   99.571625    0.973610
H   80.935684    3.359931   18.639280
H   53.141510    0.361901   97.877060
H   31.632294   34.466526   12.691013
H   37.074764   67.550125   58.195278
H   53.118015    6.427411   34.948814
H   25.172338   26.513809   12.150963
H   36.640423   99.634743   82.569664
H   17.861610   87.485756   32.107613
H   57.381798   87.787666   82.028732
H   54.371399   58.405285   17.406485
H   70.052422   70.074562   82.612495
H   25.098000   41.731205   88.845421
H    8.415693   60.420418   51.937119
H   74.561150   24.089712   12.069613
H   70.933563   88.469719   64.514084
H   47.049461   54.091812   47.009830
H   19.346220   69.142838   69.441597
H   19.270079   28.541162   72.739388
H   75.030067   94.764633   36.632156
H   65.933357   80.893852   87.008430
H   46.016163   76.503143   35.664009
H   56.289669    5.071912   26.801649
H   92.537773   54.514778    6.936328
H   45.625568   45.072018   17.850510
H   43.472828   78.795906   63.338627
H   50.863380   76.421738   12.286270
H   28.399225   27.464966   48.218636
H   54.899021   91.850609   73.340469
H   65.847961   40.997997    8.391125
H   94.743637   11.542999   60.592941
H   55.905838   62.394829   45.484428
H   55.989685   88.021614   89.316849
H   64.490379   78.527847   39.242321
H   96.923203    0.115196   36.845299
H   19.059622   34.810318   41.027580
H   65.513214   19.186661   52.778885
H   38.060318   42.984734   69.001808
H    7.655606   46.913292    1.590071
H   69.673775   85.688133   83.194969
H   43.538124   95.493263    1.825071
H   12.070272   80.894714   12.493587
H   15.364659   71.353806   11.187842
H    3.800277   82.172073    1.213540
H   49.447922   95.472313   99.751648
H   92.150566   31.375902   50.861607
H   96.377762   20.295738   25.516825
H   45.637177   71.759499   37.620251
H    9.479363   89.831253   47.282173
H    7.542017   29.982630   72.731987
H   47.906162   67.883202   32.612614
H   52.392208   44.986687    7.684752
H   76.190216   89.191154   66.409546
H    6.655936   50.745945   28.180943
H   53.377151   57.706688   39.853119
H   29.296543   39.016735   36.229473
H   11.926701   50.373001    8.091570
H   77.335945   22.962973   19.525333
H   14.901518   92.684181   77.480110
H    6.510156   90.023575   56.533043
H   29.634251   43.619572    7.129143
H   30.001989   34.934563   68.413589
H   71.103409   29.955170   85.959648
H   75.210884   41.778358   20.501347
H   83.139938   70.563812   57.853085
H   62.532139   24.243475   53.333935
H   47.911427   66.278267   51.451813
H   45.659920   55.824883   91.712914
H   38.179214   70.312508   90.265450
H   40.323444   65.441559   37.708885
H   71.644318   58.571831   18.845299
H   87.910446   21.682280   83.071152
H   10.320184   24.249725   40.980156
H   63.884972   40.906574   66.227211
H   97.680710   54.534122    7.053972
