100
TIME:    1.009, STEP:  1009
H   49.087563   29.490791   98.222244
H   73.203056   59.452953   41.647610
H   97.100464   46.495235   11.492554
H   81.645966   91.078514   84.856804
H   86.133530   53.633324   38.346443
H   12.370029    0.115497   78.670616
H    0.089615   29.470060   69.357887
H   40.580887   75.892776   15.550478
H   28.824852   89.282074   36.573997
H   47.266167   30.871403   47.202591
H    6.400299    6.841871   42.557373
H   17.328754   74.266716   21.107161
H   79.079300    0.661310   24.842779
H    5.122128    1.966291   34.025600
H   92.773857   79.896606    2.269749
H   60.954605   23.482128   49.284653
H   42.944435   48.723770   65.222282
H   22.706047   45.633072   64.566208
H   60.976036   20.681513   16.521296
H   65.336678   84.377228   85.024055
H    4.401105   55.768990   29.858593
H   59.097340   45.431702   33.340946
H   72.272423   86.416084    3.480583
H   25.294525   48.783115   32.137505
H   93.496941    6.153210   44.007118
H   42.032452   97.545197   94.599701
H   75.072220    0.533166   19.988676
H   47.404114    3.535985    0.124506
H   33.110870   40.636082    9.476795
H   39.682247   65.867142   63.601162
H   55.792942   12.525614   29.567951
H   29.465918   24.635239    5.855880
H   41.430492   94.659462   88.695641
H   20.734718   81.253944   29.243055
H   55.691551   82.647408   86.169785
H   60.283630   63.746838   17.172506
H   76.574760   67.584328   87.970650
H   22.287666   40.486607   93.644310
H    5.358598   58.968819   45.419449
H   68.156059   17.723791   17.419725
H   66.286163   90.803276   66.116135
H   40.938011   57.143906   50.204594
H   19.931944   69.550613   74.353584
H   14.927992   29.680704   79.388313
H   69.131325   92.081406   42.451523
H   65.064888   82.172173   87.275093
H   46.734180   80.171051   36.245064
H   56.293301    5.772031   31.009108
H   94.525810   48.883217    4.223659
H   47.051746   46.107021   13.094681
H   43.467640   72.231026   64.055603
H   54.168129   70.112106    7.822009
H   29.809839   27.859253   44.269020
H   53.324467   90.741417   76.341202
H   60.434471   46.959515    8.968159
H   94.828720   11.471535   58.278061
H   60.216537   60.432732   51.951775
H   50.926208   81.599922   87.565384
H   69.853722   81.400955   34.021648
H   92.435593    5.342093   34.911217
H   23.349310   31.648239   35.725975
H   63.099762   18.553726   49.701889
H   42.672958   38.347710   64.336769
H   12.325060   47.283195   99.743736
H   72.372566   80.257347   89.527428
H   39.360756   92.112770    5.845632
H    6.614325   83.245911   15.776806
H   10.667325   75.242722   14.438636
H    7.189523   77.286026   96.948891
H   50.825333   98.892235   99.608459
H   89.991325   26.748995   50.046055
H   90.770584   18.038963   30.495478
H   41.203522   68.395607   35.876568
H    7.982759   85.528336   43.240730
H   10.820445   30.079386   77.886772
H   49.513920   72.241112   28.037102
H   58.566433   39.093132    8.887976
H   79.384979   84.745049   70.164612
H    9.915522   50.546726   28.939167
H   50.042313   54.002983   33.994843
H   30.627262   39.720226   40.293743
H   17.028828   50.817093    2.405146
H   81.638863   24.097845   26.002018
H   19.579496   98.503029   71.269051
H    3.198995   85.770462   49.941185
H   28.069035   46.117588   11.851379
H   34.543556   29.990410   71.656082
H   72.198074   24.511154   85.253044
H   76.622017   37.992165   19.944935
H   77.128098   67.765411   60.284176
H   65.314980   27.915274   54.769970
H   52.942738   71.392586   52.747253
H   50.023018   57.862206   96.973534
H   44.751877   74.436958   94.850594
H   39.147846   59.350464   39.271507
H   77.260834   55.886528   15.333006
H   82.512863   25.584684   79.160446
H   10.569856   24.828705   39.892235
H   60.645592   41.199696   60.531116
H    1.903747   52.787327    0.504479
