100
TIME:    8.379, STEP:  8379
H   50.684319   53.626823   91.474808
H   69.068954   58.911274    6.427347
H   23.798243   76.722931   24.983234
H   82.882996   87.434990   80.881660
H   20.116049   44.371052   38.515366
H   98.080444   92.130501    8.546100
H   13.827228   27.127985   45.701878
H   61.313416   13.492448   38.862053
H   47.656059   80.685928   72.659943
H   45.899727   36.695026   35.792458
H   20.860855    3.389967   32.642120
H   36.038567   43.686459   96.503166
H    9.448679   54.815765   92.425262
H   40.202827   79.249458   94.884987
H   82.377327   21.579239   47.953995
H   64.621841   78.870934   37.511017
H   50.317726   36.176281   36.161781
H   80.243683   87.116951    9.069557
H   75.769455   29.862614    4.801283
H   66.768448   27.876780   86.813911
H   67.054985   22.061176   29.824129
H   65.683235   55.207230    5.729014
H   73.870476   26.478949   92.616547
H   40.528023   37.065399   84.776733
H   29.902515   21.663406   98.420753
H    8.099680   79.090561    2.380567
H   39.548401   94.171280   66.223495
H   25.546301   47.543095   43.738174
H   93.363808    9.300646   61.092094
H   22.281033   83.459000   49.494812
H   45.822582   73.416222   46.459267
H   94.812584   21.009815   23.578041
H   60.563488   55.434685   52.643448
H   32.135437    5.837385   18.757288
H   72.425499   25.262108   34.837605
H    1.010213   41.709663   93.084084
H   83.453911   97.677010   68.697777
H   17.673206    5.610584   13.724662
H   91.391075   98.854637   32.324593
H   73.984680   27.769148   97.276550
H   62.606171   43.685226   39.750088
H   94.077316   74.461411    7.723971
H   83.396881   13.750937    6.697968
H   44.316036   53.286003   99.989899
H   29.839924    1.302250   73.124809
H   69.966301   22.729252   17.201906
H    7.200036   80.516365    5.896337
H   56.699032   81.670975   87.022606
H    9.958656   38.501076   10.231497
H    1.658966   58.267178   97.672325
H   42.926250   60.705193   41.754898
H   12.347900   86.229996   24.007469
H   82.674187   70.593018   16.232859
H   82.652985   70.496521    1.559277
H   73.646339   92.900131   71.612747
H    4.031794    3.719829    7.385864
H   27.444313   47.774040   52.900108
H    2.138551   85.593864   97.730247
H   51.109417   92.810707   68.231186
H    6.092143   71.826721   25.291893
H   88.254044   88.909180   61.102100
H    1.530831   49.951523   16.230961
H   42.911129   35.515533   58.897278
H   18.410305   87.406998   99.647125
H   64.902130   91.627014   75.868591
H   86.613808   25.728294   41.616230
H   15.305571   38.046040   71.600143
H    1.570778   96.740715   66.767258
H   74.511261   47.724831   34.716621
H    0.197873   69.498367   84.071884
H   55.959835   25.293461   61.641762
H   83.276840   73.384178   70.222397
H   60.664764    3.852564   46.913548
H   45.752705   19.113338    5.302361
H   66.095993   40.652843   36.602970
H   23.741137   44.588501   32.129326
H   27.775043    0.575853   39.344917
H   25.638411    2.842052   77.184692
H   63.314766   28.906956   11.165897
H   88.611687   52.575829   99.062981
H   74.848045   15.966958   80.784317
H   70.048782   98.809570   86.016777
H   47.865280   47.244663   27.916645
H   26.611549   29.168673   98.125755
H   44.342957   24.764210   35.502846
H   58.451756   16.827694   23.646561
H   26.769320   94.130592   23.086357
H   90.786400   34.578003    8.700813
H   29.573776   27.642580   59.661385
H   25.522379   64.543594   23.746557
H   66.925896   25.872974   10.411277
H   98.260048   25.660065   93.181953
H   22.563404   78.929466   66.965515
H   57.062881   21.517078   91.781929
H   11.722630   99.189041    8.627453
H   85.992615   64.854370   34.662834
H   97.517082   48.532265   55.304817
H   22.103907    1.053593   10.672064
H    9.556800   72.984749   43.208790
H   59.661846   63.611889   90.564240
