100
TIME:    5.135, STEP:  5135
H   70.063393   51.115639   94.444778
H   58.658852   83.122055    1.883243
H   68.022415   43.336075   63.070827
H   82.338501   21.088581   58.697510
H   49.177322   84.350403   26.473343
H   48.393818   95.644966   87.282494
H   83.844566    8.076628   92.016693
H   16.285423   32.844624   36.715405
H   27.399834   92.583984   76.857643
H   34.513283   90.114357    8.769339
H   22.609833   72.860474   45.120090
H   59.854370   81.081764   27.413752
H   16.392014   51.067009   14.782471
H    0.826833   89.248360   48.016533
H   42.960747   11.348714    3.936701
H   95.055954   62.603165    6.790969
H   11.181015   21.611538   40.847656
H   10.876370   44.965855   21.520147
H   25.247784   93.771744   33.893627
H   54.169250   96.767860   65.947304
H   59.558540   45.012306   17.871929
H   54.677795   50.900772   81.985611
H   17.184380   52.859596   85.431335
H   41.942554   98.257782   25.702991
H   45.926544   78.928772   74.462990
H   23.138094   74.855240    7.546126
H   19.281706   29.020603    1.851306
H   99.265999   96.124161   36.508560
H   22.827003   14.979519   14.438133
H   97.892670   63.748436   91.606728
H   18.149277   82.520721    3.114082
H   89.984352   10.639071   23.891350
H   32.059399   92.781700   60.398308
H   95.066940    3.130684   55.421486
H   53.129425   70.753433   37.413536
H   19.014383   87.623634    3.282690
H   72.311676   16.480789   13.083121
H   51.751827   64.983757   84.804192
H   28.322254   69.534355   46.692398
H   79.533424   31.461517   42.045620
H   84.311127   32.377388   63.324078
H   70.115929   42.319633   44.044231
H   55.471600   94.293015   72.379524
H   51.455631   98.833557   82.809006
H   11.232862   29.290985   95.525902
H   11.838575   60.859089    4.022159
H   81.851852    4.096089   74.757454
H   56.513653   48.258804   86.302650
H   15.132698    7.169809   39.636940
H   33.574085    8.889334   24.515762
H   43.152851   73.892273    7.558054
H   54.683586   87.249832   36.959045
H   15.386527   51.783203    4.635698
H   57.774200   23.420593   58.409569
H   31.939114    8.611417   44.023602
H   99.991257    7.132201   17.819290
H   21.788994   41.378609   44.368736
H   43.692520   91.950005   81.289047
H   95.263893   55.735550   17.265884
H   20.162312   22.481014   17.558968
H   83.620148   39.770603   14.031522
H   16.665094   80.146225   63.013824
H   22.675089   56.880051   81.348083
H   95.650490   69.735672   87.723892
H   36.139130   50.720715   73.769142
H   85.894920   86.997093   49.804604
H   75.577698   25.893417   14.979931
H   25.656349   11.213126   11.685294
H   12.828848   80.817986   38.174683
H   34.421257    6.417119   90.920288
H   58.973335   46.014908    0.548511
H   50.562370   81.104202   32.582100
H   72.179642   64.306282   30.086823
H   17.168308   24.425198   98.049858
H    9.750962   35.960789   90.665497
H   47.054306   36.677956   50.408482
H   33.179379   81.478951   81.863518
H   73.231964   14.954918   98.025536
H    7.755976   38.435612   74.975990
H   47.695129   29.289951   78.536438
H   11.355816   82.405594   86.896172
H   26.610710   77.763016   57.392113
H   42.675507   92.994690   18.974791
H    3.430186   51.572311   94.414551
H    2.296727   27.687454   49.971703
H   33.109509   97.670647   98.373047
H   10.109777   29.996597   68.400131
H   38.610931   94.174515   42.341736
H   62.249374    8.264004   86.193123
H   12.335315   98.006149    7.782234
H   34.168053   50.706089   41.903606
H   58.236897   81.680573   31.370131
H   14.616727   81.597206   16.102009
H   43.545433   24.707979   73.044334
H   67.810051   89.767296   34.081913
H   18.051575   92.956635    2.219347
H   55.010063   62.367794   41.870605
H   25.714018   59.959137   73.862816
H   64.093536   58.985264   14.926476
H   58.164303   46.860485    3.069245
