100
TIME:    4.994, STEP:  4994
H   79.598793   64.046089   94.573868
H   62.553047   75.482117   92.993164
H   65.597687   33.191803   64.725929
H   82.314835   26.898140   66.426399
H   50.440247   73.048630   30.296001
H   50.580807   95.797722   73.319328
H   91.234932   98.555496   80.990311
H   27.367744   20.646755   49.661991
H   30.865883    6.140627   85.732536
H   38.366600   88.089806    3.247648
H   35.725311   67.186996   58.701366
H   65.236076   74.014122   37.450203
H   25.389542   59.593361   28.792969
H    7.808122   89.682961   37.285980
H   41.246010   23.943094   10.714619
H    0.725193   74.935501   18.495411
H   22.519478   12.285800   28.011869
H    7.861321   51.825878   26.407793
H   23.051651   87.857300   26.465609
H   57.967705   99.762733   56.347359
H   67.925682   59.049698   21.698891
H   41.159988   50.713593   93.993073
H   19.066933   54.006340   89.465378
H   55.044048   96.571014   36.175041
H   50.969635   90.110062   73.421669
H   23.780851   79.022675   20.805212
H   31.440310   34.882061   99.053749
H   11.162974   89.542755   31.847361
H   19.761131    2.187042   21.102909
H   92.485977   67.238152   80.397469
H   12.599883   69.876419   14.269554
H   81.081490   14.534612   36.944435
H   22.127583    3.097964   47.695915
H   89.109467   16.052307   61.361748
H   56.634201   81.411911   28.828018
H    6.757872   76.580040    3.726166
H   58.787827   21.644901    1.973088
H   57.579136   67.563393   74.853554
H   34.274349   72.606682   60.356506
H   92.814568   44.661957   30.951517
H   93.947647   27.539762   60.002178
H   82.788200   35.991028   37.420872
H   54.257084   93.447479   62.194565
H   60.458538   96.466919   69.022263
H   23.463541   34.853661   83.460350
H   13.657928   58.169727    3.448986
H   80.750290   96.427940   73.404167
H   56.506123   46.806549   77.578362
H   11.011520   18.847027   45.262009
H   30.616863    6.743223   34.377113
H   43.163609   87.504745    6.071644
H   47.831093    0.333057   46.215828
H   12.461846   50.965637   12.824804
H   61.039085   25.721611   52.187462
H   43.165588   96.254158   42.824146
H   99.814835    7.280519   22.619263
H   12.850537   45.447075   30.958504
H   54.191788    5.265733   84.920761
H   84.142845   49.778076   28.090565
H   29.466427   11.642888   21.569344
H   74.725891   46.327267   25.024605
H   21.668921   81.458633   69.393158
H   13.102574   66.501511   91.016876
H   85.968788   68.967590   91.551392
H   30.542170   61.982685   60.638599
H   94.556816   94.006645   41.467583
H   86.890228   21.018681    8.172081
H   35.396141    3.148880    4.944678
H    5.801235   90.949348   47.018379
H   31.565073   99.325195   91.217194
H   63.450584   55.608398    2.240027
H   62.187943   85.783691   22.258686
H   81.372955   71.281410   33.702400
H   20.271832   33.348957    6.427442
H    2.952963   35.759624   79.976898
H   43.720573   27.640886   59.895473
H   20.377432   93.699409   79.369942
H   66.607529   24.174587   90.239296
H    0.994757   38.849773   73.403252
H   54.610016   36.969501   90.683746
H    8.596800   80.946884   78.468788
H   16.030762   76.842178   69.182274
H   33.756508   90.636658    5.546479
H   93.729309   39.506760    7.292848
H    9.162494   36.507484   63.640114
H   36.355030   92.492012   88.581619
H    0.692685   40.248444   61.676727
H   36.341110    5.463209   43.807976
H   59.323349   16.114515   87.346321
H   24.801661    3.807274    2.741967
H   28.397758   43.093044   38.925945
H   47.804325   71.075882   28.683996
H    5.578553   77.367378    5.198261
H   29.916824   16.155272   63.536953
H   70.247688    2.396720   30.841961
H    6.405544   98.524689    9.502407
H   66.202110   54.276043   49.979568
H   25.196585   58.758606   76.119728
H   70.810486   58.377468   26.737076
H   49.406666   50.478214   16.652391
