100
TIME:    7.442, STEP:  7442
H   14.050350   39.553627   92.332657
H   94.947403    8.134032   47.347668
H    7.692108    9.311488   35.982868
H   82.725723   26.040615   32.240940
H   28.512247   69.266457   63.921997
H   12.611375   93.145622   15.751984
H   62.933186   63.858562   72.427246
H   34.959770   32.429440   24.893852
H   70.689308   70.775406   31.639080
H   71.492226   23.241091   99.102150
H    8.018311   65.687607   22.898733
H   71.802170   96.719818   63.199318
H   69.198067   11.531631   85.541039
H   86.598167   82.137550   23.579372
H   70.996529    5.276695   93.017120
H    2.295911   60.824463   15.289776
H   25.665840   74.200500   50.862972
H   60.211552   32.711151   41.548439
H   61.173107   90.553574   55.433949
H   92.017807   47.772472   23.018534
H   22.657883   15.342308   55.252514
H   75.852127   53.963348   85.523254
H   86.380775   34.096916   19.425859
H   27.588491   25.856173   54.366852
H   63.415596   95.971512   91.500771
H   12.517666    6.712418   90.557198
H   20.346575   33.121361   47.630474
H    4.607890    3.807092   12.764705
H   72.989891   24.288340    5.385367
H   86.352921    6.650028   75.006371
H    8.944110   89.394257   20.591652
H   35.649593   46.895412   10.320808
H   94.561043   23.989973   68.231087
H   92.543526   91.707893   58.231445
H   95.744698   96.206230   77.829575
H   19.558029   68.318146   96.029366
H   93.583817   31.994261   94.865936
H   56.399269   22.759335   47.601936
H   30.942936   19.268091   23.127075
H   62.239288   15.487948   23.555204
H   26.643229   11.537328   17.674772
H   73.042686   70.786957   59.885891
H   75.333099    8.130238   39.016834
H    4.147770   37.556175    8.375175
H   11.117802   38.268452   92.941719
H   82.061974    4.860812   13.395201
H   99.875290   29.559956   96.899529
H   56.641842   72.020172   29.046307
H   82.567024   16.104061   47.610466
H   81.986084   44.005436   63.188881
H   42.990589   51.166641   31.875381
H   66.809769   73.177017   85.515717
H   63.243626   65.159973   70.650124
H    4.355125   85.780533   60.211075
H   48.252060   10.785851   63.648731
H    2.864761    4.705462   39.283554
H   68.041107   74.810585   63.783577
H   71.909103   74.082222   21.866526
H   77.208794   53.219021   40.163429
H   67.922356   99.804016   51.942406
H   29.148062   32.484558   34.159004
H   34.786812   58.672989   58.628822
H   79.298500   99.453888   23.150177
H   54.069386   82.302795   25.088551
H   27.707809   66.465210   88.609734
H   44.173523   72.309502   86.212967
H   90.482544    5.652685   26.362452
H   66.295891   43.153740   21.973236
H   27.810135   15.051666   93.482849
H   81.167915   22.437357   86.059235
H   85.714836   89.048187   72.879585
H   60.435902    4.495751    1.542503
H   21.758997   50.199955   70.938538
H   66.377647   78.414673   60.975098
H   20.959707   39.273136   65.559143
H    1.588135   84.535545   95.177620
H   42.675495   81.676704   22.726084
H   81.619019   64.107582   25.433123
H   18.384916   31.659222    0.709047
H   34.561813    3.618037   79.786293
H   56.504372    6.273263   24.781067
H   99.738930   92.733139   64.405434
H   88.598076   31.574621   38.681854
H   62.145870   48.987423   83.705406
H   89.966232   83.379112   26.334047
H   80.014206   82.411896   58.578293
H   64.189140   62.258446   78.406593
H   75.716850    9.557280   18.415955
H   10.125623   79.813805   67.324837
H    8.365575    3.090191   90.250732
H   28.580036   75.277290   90.623215
H   28.931536   55.188736   75.324394
H   62.500034   50.817257   94.505867
H   66.505928   64.670372   28.601404
H   27.925255   83.120651   87.096161
H    8.600326    1.856142   83.059822
H   71.891441   94.761017    9.192346
H   23.912539   54.688381   29.483980
H   54.193291   68.938560   21.691540
H    1.463503   87.660141   80.829041
