100
TIME:    7.807, STEP:  7807
H   89.366936    6.082077   91.998489
H   84.866684   27.913685   70.362686
H   13.966120   35.570282   31.697269
H   82.786987   11.001686   12.233908
H   25.241583   98.522820   54.025070
H    6.950717   92.750191   51.899925
H   43.804882   88.503433    0.970722
H    6.271492   64.005486   91.380684
H   61.716911   35.682251    8.663673
H   61.522896   28.481951   13.394527
H   74.066910   80.374268   87.739670
H   57.871727   15.014927   37.217796
H   45.923302   89.438690   49.268291
H   68.525276   81.012520   51.357044
H   75.429817   72.673111   75.462189
H   87.620193   28.900330   84.991486
H   96.314430   98.344101   84.090363
H   68.015717   14.950191   28.897072
H   66.858139    5.864952   74.664047
H   82.182144   40.022572   47.869453
H    0.998281   79.006042   45.347233
H   10.845033   54.447891   54.440109
H   81.507500   31.128805    8.982202
H   93.674911   30.222628   27.257759
H   50.360786   67.027039   94.196388
H   10.796703   95.953110   56.209717
H   88.872650   17.948664   54.873554
H   73.809105   20.844061   24.829729
H   80.926369   57.404011   88.131523
H    0.348948   97.615860    4.023085
H   23.309477   22.124748   91.714088
H   58.696011   36.811909   76.530983
H   20.271185   97.285576    1.113168
H    7.965722   58.257729   42.854172
H   86.660912   68.570580    0.035004
H   51.286686   96.906174   94.882057
H   28.592213   18.626169   23.626249
H   41.314392   16.078770   73.358910
H   15.535052   11.316298   87.756294
H   27.861641   81.318375   52.273705
H    1.698930   24.060255   26.274015
H   42.282570   72.218307   78.520683
H   78.474274   10.319731   65.380013
H   80.839996   43.682579   44.062252
H   79.455925   23.868618   24.176315
H   77.350212   11.821399   14.878069
H    2.728512   49.409676    0.402971
H   56.664120   75.779556   51.630459
H   93.238106   85.874458   33.049118
H   89.649658   49.560970   37.666840
H   42.965527   15.928045   35.723831
H   84.548492   39.307110   61.555908
H   70.812798   67.276367   49.452766
H   95.902130   79.826782   76.317947
H   19.190014   42.773224   66.751236
H    3.319368    4.321517   26.858093
H   91.182205   64.278740   98.498009
H   44.730148   39.612846   12.464150
H    5.995479   68.642799   12.142498
H   43.836784   27.860058   41.560936
H   52.172375   15.510302    5.701606
H   21.832253   55.275620   42.112595
H    4.077283   74.547272   98.121033
H   79.133049   84.291092   15.177758
H   42.196342   37.312115   22.601057
H   21.751522   54.164207    7.794860
H   61.198334   18.271179   43.984661
H   41.082954   64.028069   39.422348
H   46.002769   88.825111   70.592377
H   88.580864   40.769230   85.285080
H   74.124794   64.213974   68.501991
H   30.380245   92.376366   28.296480
H   97.959625   32.146557   61.580997
H   58.342884   55.313610   39.287628
H   38.541611   39.810589   93.233780
H   10.217525    7.927855   70.616310
H   75.824913   50.085510   29.199186
H   98.767380   40.241650   45.591778
H   35.886940   30.587101    4.782436
H   16.662769   83.734886   48.341133
H   63.649986   10.049356   46.596634
H   27.127842   95.100159   33.870846
H   11.684468   37.678745   73.442871
H   87.258354   80.220947   50.367771
H   72.194092   60.544758   90.952003
H   71.615463   95.817581   83.924896
H   88.566658   35.719978   95.811150
H   81.587059   80.350586   14.631508
H   17.701477   59.490852   64.339607
H   76.095612   88.074356    3.299523
H   43.517323   94.987602   98.331345
H   55.937840   82.640594   82.280647
H   85.897324   61.769596   22.731874
H    1.782789   86.814537   53.212780
H   21.613667   50.426773   95.483765
H   38.747803   87.442505   64.207207
H   42.919121   15.707227   88.200752
H   23.208002   72.748695   22.155966
H   36.805443   70.514717   91.118828
H   24.134409   78.292313   45.667599
