100
TIME:    9.504, STEP:  9504
H   74.605377   50.459419   90.444839
H   37.998245   19.871311   77.363274
H   43.135899   57.659599   11.777496
H   83.071823   41.086418   19.215551
H   10.035234   34.544495    8.013952
H   80.639648   90.911705   19.958488
H   54.864239    3.092630   33.678356
H   72.890640   10.819271   35.568138
H   20.001411   72.521072    1.843843
H   15.169989   52.848362   79.840767
H   16.216095   48.655060   24.273859
H   93.098854    0.077215   16.423969
H   37.711197   86.724113   80.625961
H   84.500565   75.781898   80.498909
H   96.041573   21.088692   93.853783
H   19.387871   80.474289   44.126038
H   59.851875   10.587276   38.574966
H    4.304396   32.374138   70.069412
H   93.296082   77.058533   64.067444
H   36.460850    3.985807   63.409111
H    0.295400   10.064249   99.288666
H   73.538086   56.700684    9.924850
H   58.850105   17.333689   60.430038
H   35.999073   50.523651    1.223977
H   89.667465   32.445862    6.725883
H    2.793076   45.925583   96.512917
H   42.538559   47.407673   88.539474
H   30.622038    0.054306   80.924706
H   17.826687   11.369427    7.913343
H   65.418571   55.615524   38.928932
H   90.097572   74.297256   57.452866
H   65.845688   89.926910   19.431160
H   39.806625   73.124634   53.992332
H   79.668472    2.737869   71.363136
H   44.427528   40.083809    3.282983
H   98.804337   29.827097   89.547859
H   91.356354   56.478279   57.343342
H   71.172478   85.026527   93.112617
H   43.905903   74.341393   23.304039
H   68.022018   22.450050   85.789810
H   85.720718   82.287354   66.254601
H   99.268379   78.873108   65.155266
H   93.078583   20.500805   87.956657
H   72.487709   72.173622    9.984782
H   32.254623   56.926174   69.397049
H   55.448807   44.185070   21.772390
H   15.995633   41.700115   16.699926
H   56.767696   93.258118   56.630833
H   42.840393   45.328480   65.357788
H   25.272291   75.396111   19.012882
H   44.201405   52.196167   51.539078
H   67.023453   81.838699   50.157722
H    6.004553   77.116150   50.895859
H   56.597229   52.140373   51.201118
H   84.071999   91.489777   81.174286
H    5.432980    2.536438   69.088196
H   98.765213   15.312828   59.896950
H   18.368559   79.351418   68.753807
H   39.839703   40.348312   81.863579
H   31.852848   58.298260   93.294228
H   59.223606   36.591290   73.394310
H   61.602379   39.480179   65.331352
H   19.286819   58.747215   81.752655
H   95.662231   93.535309   69.108566
H    9.552207    1.773576   80.634590
H   17.503838   69.801628    8.135253
H   25.045033   76.938782   25.915730
H   23.859634   61.081429   20.548767
H   30.580057   66.889511   64.160034
H   23.046280   26.005945   81.685791
H   20.229935   48.746159   48.149178
H   90.635994   36.030663   52.684376
H   87.313507   48.202747   18.065853
H   20.990551   47.911404   38.457680
H   20.287893   42.309376   21.901129
H   50.340065   16.689613   56.429710
H   29.949078    3.204166   59.300552
H   78.487236   29.285149   39.320816
H   17.265600   25.602474   23.722101
H   33.439720   91.290901    2.143220
H   96.872200   27.605600   48.024559
H   54.467636    6.111462   91.899300
H   19.022123   66.058754   35.056126
H    4.009591   25.437283   95.374352
H   89.565811   54.386780   26.447546
H   32.556637   58.153595    1.769694
H    1.905523   12.333850   76.730537
H    8.878839   44.557289   97.038544
H   52.920170   65.004723   50.460335
H   26.057329   18.255203   63.959114
H   12.966036   86.618546   34.169212
H   81.498657   10.271296   14.616914
H   94.678345   12.681265   53.963493
H   64.436256   89.666245   69.715309
H   92.271225   98.418434   34.476387
H   78.913010   20.429525   76.554871
H    8.219790   13.093673   90.604050
H   19.932390   56.717068   88.083458
H   55.964348   77.842766   48.978573
H   29.541527   34.747028   82.189636
