200
TIME:    0.070, STEP:    70
H    4.247395   63.039188   12.432682
H   26.449068   30.396152   82.995857
H   21.700867   61.697281   36.974785
H   12.112159   74.986763   48.945152
H   17.015167   79.420624   56.102692
H   95.148987   57.429062   70.581779
H    0.896275   55.424751   46.360882
H   99.079094   81.545380   31.106609
H   80.524559   90.054825   51.866566
H   16.845547   77.280174    2.777755
H    6.268183   90.962593   87.589508
H   30.074829   37.485298    4.642077
H    7.001735   81.365944   68.259148
H   12.439228   52.489697   34.073971
H   27.829592   70.635918   43.396873
H   34.255566   32.970798   57.990265
H   76.210129   99.756607   23.685814
H   40.599083   74.994659   46.546909
H   59.369221   35.856289   39.981277
H   89.515404   82.039268   44.060764
H   56.044899   68.272003   33.628941
H   93.813667   42.316414   77.125824
H    0.095933   63.777496   53.215263
H    5.033961   86.552559   92.127037
H   95.857430    5.866686   51.476406
H   18.801817   54.792294   12.571249
H   95.603981   55.385654   42.246689
H   90.608917   63.116486    0.283960
H    3.908567   61.696968   39.333809
H    0.731581   16.210264    4.506304
H   13.583441   44.346897   15.986969
H   35.017445   59.521957   89.417717
H   31.230888    5.327520   71.102661
H    2.053162   63.392448   35.318878
H   56.146549   96.825546   35.512196
H   38.614349   53.798027   77.527092
H   81.385162   78.098206   84.678688
H   41.323986   40.357845   22.810970
H   59.361984   52.488071   40.652832
H   91.713074   40.387569   70.337006
H   80.454544   13.167031   95.881432
H    4.877732   46.671684   44.871918
H   79.762772   91.687187   44.015797
H   37.659988   54.977921   12.668338
H   22.968729   71.108459   38.229118
H   43.452103   18.262798   40.839008
H   76.770569   34.540848   92.451439
H   94.254539   65.553200   53.759109
H   80.505890   35.203426   61.043766
H   68.200516   17.034330   12.904736
H   82.252274   72.647835   34.605984
H   27.636721   32.771954   59.886055
H   47.592529   99.287270    5.704118
H   24.936710   78.596207   79.185692
H   84.394638   80.165680   96.271324
H    7.484934   76.538063   73.081512
H    5.915642   16.102150   51.478168
H   65.551376   54.627445    8.371739
H   31.768332   71.193466    3.014843
H   47.035137   96.943764   70.136856
H   50.970093   18.693151   47.203354
H   86.882263   16.022165   47.763348
H   66.763855   21.684797   90.620239
H   20.007099   64.909798   99.871941
H   68.615601   73.544739   10.977905
H   45.408211    9.956640   29.807571
H   92.525246   26.747860   82.322853
H   98.293419   91.063423   83.905846
H   10.475710    3.555942   64.131523
H   46.215549   38.666996   50.991673
H   58.539742   73.651840   68.734070
H   36.917980   28.290312   45.954823
H   72.098282   22.724102    5.187983
H    2.327011   12.701341   55.623936
H   77.075027   98.119453   75.606110
H   49.016808   25.078457   63.988350
H   96.146118   23.621500   74.550209
H   32.851795    2.874316   53.780678
H   10.238102   22.119287   38.703640
H   70.837662   91.615051    2.323817
H   36.152905   32.975113    3.657011
H   19.161541   71.647270   93.112663
H   11.662965   11.801543   95.253700
H   30.217756   56.300667   88.310760
H   44.961952   97.526215   62.599892
H   19.877728   91.722351   31.321678
H   28.236010    2.429867    1.381596
H   76.745216   24.871420    5.030198
H   60.487831   71.627846   76.547661
H   24.295609   78.427299   56.735775
H   48.368851   33.425243   81.510635
H   85.239586   87.043915   94.658432
H   39.183941   18.779385    0.571491
H   67.651276    0.541208   64.436775
H   20.817249   59.225777   60.859474
H   76.312172   23.908447   37.054546
H   76.999535   20.159109   91.007675
H   11.568098   25.797050   46.983997
H   40.869987   71.480988   52.278793
H   64.248573   95.164780   27.208902
H    2.281519   75.726074   60.934479
H   84.250740   74.084625   66.802330
H   19.655455   43.382568   28.127068
H   13.707090   67.625610   83.411499
H   25.564093   29.706810   19.575947
H   80.692986   35.096157   51.849792
H   57.605251   27.985918   57.050400
H   65.752480   27.747238   25.315111
H   68.476265   42.235535   90.912224
H   98.905884   30.430651    4.705241
H   44.957870   97.544060    0.676243
H   79.167862   59.069748   88.574745
H   60.046654   78.301926   97.633110
H   63.800041   23.062336   79.337830
H   69.523323   74.889557   32.733372
H   20.976177   10.770647   71.265244
H   39.564457    6.048874   82.198288
H   41.633617   18.628902   37.376640
H   12.406215   51.331089   91.941605
H   66.296318   43.281918   43.001091
H   38.780281   20.629749   93.090431
H   25.624264   31.507206   43.187592
H   28.137884   28.992367   18.986101
H    6.581975   73.436760   25.309643
H   82.002251   13.159178   98.435715
H   41.494167   57.700748   28.813761
H   99.612251   48.396164   77.620163
H   79.147163   86.236656   33.566799
H   90.375664   58.637272   88.764397
H   59.505371   24.955105   63.605415
H   41.746544   91.255646   96.914703
H   88.225197   84.365280    5.318022
H   92.992867   74.323784   96.110580
H    9.256545    8.644236   47.614388
H   96.027985    4.443953   64.228699
H   66.885895    1.845030   86.186104
H   68.611267   86.131325   46.875755
H   89.768303   69.528236   85.884453
H   41.869720   41.956238   71.590294
H   43.355858   17.243364    0.181179
H   42.201443   68.068466    9.418620
H   65.064377   35.845535   42.283916
H   60.470398   53.631985    5.118147
H   65.502846   32.681587   75.307350
H   32.311138   75.405121   43.509617
H   39.711304   59.046463   37.988068
H   40.710564   97.522270   48.499126
H   47.294395   79.746742   69.800316
H   60.640598   71.889450   99.634445
H    4.016394   86.776611   96.350853
H   82.212349   58.422832   52.627575
H   26.631430   11.813570   53.479744
H   68.278336   38.195171    9.432671
H    5.415959   97.240234   80.153496
H    6.871382   49.389484   57.677383
H   58.455482   43.107380   48.830818
H   57.531780   55.785740   78.742844
H   43.629112   39.387482    5.741333
H   20.162413    2.374886    8.909202
H   65.585075   63.880157   71.717178
H   52.286064   91.315895   87.935921
H   51.585827   23.937286   37.016716
H   57.901699   41.981636   37.302738
H    5.034664   15.185547   78.472351
H   60.581917   16.319967    8.154175
H    8.984752   69.847725   63.231121
H   77.827156    0.316540   50.419521
H   23.483707   23.197922   40.982990
H   91.763008   28.723055   37.258354
H   18.714966   11.742606   92.317719
H   82.612671    3.612125   35.990341
H   52.035744   71.760895   56.936073
H   34.388298   84.758926   95.207352
H   73.315086   78.619446   70.306290
H   79.339172   96.315384    7.224295
H   95.658478   46.742577   23.123648
H   37.164150   47.610596   79.796532
H    0.223332    9.038734   62.706432
H   79.949104   25.331514   71.123138
H   94.387306   52.631523   83.986855
H   84.521530   79.097420   45.671898
H   15.798740   29.898525   63.410038
H   73.461227   90.342148    2.705392
H   47.779289   24.905493   70.936165
H   83.324554   95.707809   79.097214
H   95.701469   34.789291   83.103371
H   25.432856    7.436569   95.498672
H   98.588242   60.023983   19.578194
H   11.541454   60.415310   64.600510
H   46.522179   59.198071   63.555195
H   39.699123   36.648773   80.515450
H   49.046539   80.309296   26.789724
H    0.324378   13.479663   53.911980
H   38.073689   56.745842   29.887064
H   90.728500   61.848606   22.372372
H   74.913101    9.966299   31.895454
H    8.331271   80.923943   97.728836
H   33.850197    0.784738   51.761063
H   14.180299   11.136221   85.620064
H    9.780893   40.752056    0.110643
