100
TIME:    1.227, STEP:  1227
H   34.344887    9.499166   98.022659
H   67.139000   71.272346   55.399014
H    0.846277   62.179287    8.932877
H   81.682556   82.097191   72.908318
H   84.180923   71.106987   32.435402
H    8.989559   99.878792    0.259067
H   88.663383   44.191113   86.405769
H   23.446518   94.753555   95.534462
H   23.465996   68.322327   22.851423
H   41.308556   34.001259   55.739838
H   86.122482   15.613242   21.558958
H    9.007725   85.193993    5.590229
H   65.211472   87.472054    3.175541
H   94.328102    1.294199   50.616100
H   95.425011   60.424076   91.791275
H   52.189499    4.413448   31.188950
H   25.417862   63.140457   85.071007
H   27.364693   35.031784   57.008591
H   64.370827   29.827494   28.005747
H   59.458580   79.757431   99.872551
H   91.464722   34.065788   23.941730
H   80.000542   45.719437   14.777909
H   69.361809   84.643105   97.243317
H    5.039948   51.397678   15.946177
H   85.699821   88.863075   45.615440
H   41.032864   91.048706   74.165527
H   56.273956   91.471939   24.314680
H   29.010696   13.711816    7.330200
H   37.851013   60.414951   99.172173
H   48.041531   60.471695   80.931786
H   64.368446   32.075790   12.317989
H   43.230625   18.612762   85.674553
H   56.786892   78.709297    8.334805
H   29.945564   61.275490   20.059652
H   50.272820   66.168343   99.445511
H   79.237549   80.871231   16.422400
H   97.484612   59.600929    5.148156
H   13.277943   36.496571    9.028151
H   95.558365   54.315163   24.524567
H   47.623421   97.315178   34.571682
H   51.388557   98.284386   71.252121
H   21.345421   66.928062   60.446629
H   21.809706   70.857895   90.100838
H    1.007668   33.334244    0.703960
H   50.221863   83.479294   61.107727
H   62.257496   86.319923   88.153999
H   49.036060   91.929932   38.107857
H   56.304943    8.016531   44.497723
H    0.899016   30.829094   95.527847
H   51.623905   49.425121   97.847740
H   43.451008   51.184792   66.354156
H   64.762764   49.883007   93.510941
H   34.332100   29.123291   31.607044
H   48.276630   87.185478   85.961197
H   43.078896   66.071259   10.818062
H   95.101486   11.242428   50.856827
H   74.037338   54.142479   72.685326
H   34.693298   61.012733   81.950394
H   87.047966   90.611801   17.285519
H   78.048843   22.098913   28.710777
H   37.101238   21.510986   18.729652
H   55.362518   16.524612   39.837402
H   57.460541   23.481480   49.381203
H   27.294764   48.469063   93.826042
H   81.024574   62.846775    9.828946
H   25.968605   81.275307   18.735167
H   89.123734   90.783569   26.302418
H   95.608345   87.710129   24.860296
H   18.054939   61.621933   83.277321
H   55.241150    9.857077   99.149414
H   83.069054   11.915674   47.431492
H   72.794632   10.803709   46.457207
H   26.989452   57.612354   30.286526
H    3.184801   71.733688   30.284340
H   21.330883   30.389574   94.412407
H   54.668201   86.212059   13.368514
H   78.359062   20.198568   12.745371
H   89.627014   70.491356   82.202911
H   20.365458   49.908054   31.369946
H   39.351212   42.129341   15.213916
H   34.893391   41.975536   53.323315
H   33.385715   52.240799   84.176224
H   95.433510   27.736113   46.765507
H   34.576641   17.157572   51.357124
H   92.584244   72.135483   28.808464
H   23.051136   54.125935   26.990013
H   49.103279   14.140038   82.051132
H   75.707443    7.058067   82.987755
H   81.145943   25.854494   18.161144
H   57.854843   58.795036   68.077965
H   74.236427   39.686085   59.373730
H   69.072533   87.788490   56.900284
H   64.010597   64.393723   13.838804
H   65.822914   87.659462    9.549382
H   35.379017   39.822739   44.281090
H   95.266724   47.277763    4.072672
H   65.208847   38.095333   66.623184
H   11.370275   26.684845   36.404488
H   50.260521   42.139408   42.270756
H   15.442276   47.187305   79.508125
