100
TIME:    4.679, STEP:  4679
H    0.901239   92.933266   94.862259
H   71.252846   58.413383   73.132629
H   60.182434   10.530204   68.422142
H   82.261963   39.876213   83.691414
H   53.261673   47.799988   38.836945
H   55.466633   96.138985   42.123341
H    7.744613   77.286652   56.356899
H   52.126122   93.395325   78.584007
H   38.609184   36.426697    5.559931
H   46.975075   83.566872   90.913544
H   65.025848   54.512211   89.044495
H   77.257179   58.224709   59.872612
H   45.490402   78.641594   60.093018
H   23.404388   90.653877   13.313472
H   37.415215   52.080109   25.856564
H   13.391438    2.486513   44.643494
H   47.849831   91.450623   99.336174
H    1.125349   67.151955   37.327587
H   18.145397   74.644180    9.871103
H   66.454308    6.452230   34.900673
H   86.618233   90.407806   30.248486
H   10.960632   50.295425   20.818176
H   23.272636   56.568214   98.477600
H   84.311676   92.798920   59.570770
H   62.236115   15.090996   71.095314
H   25.216799   88.332901   50.425838
H   58.604324   47.977421   92.805275
H   37.741451   74.839615   21.434038
H   12.911571   73.607536   35.992622
H   80.407196   75.034325   55.355507
H    0.202107   41.630413   39.191353
H   61.192120   23.236916   66.105583
H   99.939064   26.144083   19.318228
H   75.800217   44.920258   74.632545
H   64.464020    5.223536    9.647606
H   79.375275   51.908176    4.717165
H   28.576319   33.181625   77.152267
H   70.598808   73.326408   52.624638
H   47.571583   79.470390   90.882706
H   22.484278   74.151527    6.167906
H   15.475288   16.732306   52.580914
H   11.098917   21.853518   22.624002
H   51.543804   91.558517   39.442909
H   80.573395   91.183533   38.223122
H   50.786572   47.280914   56.505390
H   17.722187   52.161579    2.168500
H   78.289352   79.297508   70.380867
H   56.489300   43.562149   58.087929
H    1.804434   44.934406   57.828651
H   24.010303    1.948721   56.407791
H   43.187641   17.916275    2.750941
H   32.522331   29.562773   66.895538
H    5.927890   49.139160   31.119616
H   68.334404   30.862183   38.287010
H   68.246002   68.645515   40.144512
H   99.420700    7.611869   33.342606
H   92.880615   54.536201    0.999185
H   77.647598   35.014168   93.034164
H   59.298409   36.468826   52.274368
H   50.252216   87.431381   30.528694
H   54.855743   60.975132   49.583511
H   32.847771   84.390610   83.644485
H   91.717613   87.996262   12.617393
H   64.339455   67.251663    0.102218
H   18.039213   87.140198   31.304388
H   13.907024    9.665916   22.842321
H   12.163408   10.128634   92.963730
H   57.155251   85.133865   89.885857
H   90.102402   13.583221   66.775238
H   25.183218   83.482910   91.880493
H   73.452950   77.040665    6.018922
H   88.162201   96.237869   99.195824
H    1.911308   86.864143   41.779755
H   27.205517   53.283993   25.142998
H   87.764656   35.310215   56.098110
H   36.272873    7.452297   81.091751
H   91.777725   21.001381   73.799187
H   51.808254   44.772465   72.844505
H   85.887993   39.775028   69.889687
H   70.058167   54.126369   17.821068
H    2.432769   77.688065   59.641659
H   92.395866   74.784988   95.521996
H   13.831087   85.368713   75.548660
H   72.056717   12.551012   36.062439
H   24.501028   56.211807   94.175926
H   43.605663   80.922722   66.707153
H   79.654549   63.151505   46.656357
H   31.270407   30.682062   47.083618
H   52.786484   33.652412   89.922615
H   52.652721   16.768051   91.480667
H   15.506675   26.084759   32.273724
H   24.497236   47.384850   22.682913
H   85.386559   67.913048   80.838791
H   99.470230   97.048248   42.299351
H   75.693474   30.613327   23.604546
H   80.387787   10.963284   25.772713
H   91.205620   36.198727   68.095337
H   24.040617   56.076569   81.161766
H   85.816437   57.019627   53.122459
H   29.841730   58.560375   46.997738
