100
TIME:    5.375, STEP:  5375
H   53.832924   29.106483   94.225052
H   52.030434   96.126205   17.016071
H   72.149612   60.602921   60.252834
H   82.378784   11.199970   45.541382
H   47.027664    3.587426   19.966690
H   44.671284   95.384956   11.050215
H   71.265221   24.283070   10.785081
H   97.421890   53.606953   14.678689
H   21.500175   69.509033   61.751167
H   27.955011   93.560402   18.168142
H    0.285629   82.517456   22.002628
H   50.693604   93.111794   10.330927
H    1.077094   36.554070   90.934746
H   88.943321   88.508614   66.281075
H   45.879448   89.911057   92.400635
H   85.406296   41.611954   86.868866
H   91.881508   37.484951   62.695801
H   16.008360   33.289219   13.200750
H   28.985882    3.839499   46.537060
H   47.703796   91.670204   82.287636
H   45.316597   21.118874   11.357952
H   77.686829   51.219376   61.547379
H   13.979745   50.907692   78.564880
H   19.642647    1.128878    7.878383
H   37.342560   59.896393   76.235451
H   22.044039   67.761734   84.976913
H   98.586258   19.044102    6.613650
H   79.014534    7.326515   44.442520
H   28.045509   36.753727    3.093735
H    7.095150   57.808495   10.685883
H   27.594772    4.042685   84.126045
H    5.138076    4.008502    1.673397
H   48.965527   75.221886   82.019402
H    5.207564   81.136101   45.310402
H   47.163849   52.611343   52.027184
H   39.876850    6.421474    2.527853
H   95.331696    7.690811   31.994183
H   41.833004   60.591465    1.741288
H   18.191029   64.304863   23.434679
H   56.927799    8.993418   60.929287
H   67.908539   40.611641   68.978371
H   48.546104   53.091728   55.318035
H   57.538860   95.732224   89.715950
H   36.131535    2.861973    6.275482
H   90.414268   19.822601   16.063723
H    8.741678   65.436722    4.997698
H   83.726852   17.148693   77.060921
H   56.526470   50.730728    1.152495
H   22.147469   87.292480   30.062542
H   38.607655   12.542288    7.730480
H   43.134541   50.722107   10.088115
H   66.347404   64.980545   21.202820
H   20.365108   53.174805   90.697380
H   52.216949   19.503967   69.000389
H   12.829311   29.643988   46.065228
H    0.290258    6.879745    9.649124
H   37.003227   34.453560   67.194664
H   25.821743   69.285210   75.107407
H   14.192108   65.876106   98.841072
H    4.325182   40.928890   10.732796
H   98.759308   28.610046   95.319176
H    8.147943   77.912338   52.153839
H   38.969120   40.503098   64.890564
H   12.130763   71.043045   81.209000
H   45.666107   31.551426   96.118996
H   71.151268   75.065941   63.995277
H   56.322327   34.190601   26.567760
H    9.077788   24.939627   23.158682
H   24.791006   63.573112   23.121582
H   39.282707   18.488682   90.414917
H   51.352486   29.685562   97.669960
H   30.774105   73.139114   50.154732
H   56.531448   52.435509   23.932648
H   11.885715    9.235683   83.789604
H   21.322065   36.303196    8.859203
H   52.728745   52.060646   34.260410
H   54.970760   60.677876   86.107903
H   84.507599   99.261818   11.279981
H   19.264477   37.730656   77.652992
H   35.926682   16.216614   57.860168
H   16.052019   84.888504    1.240608
H   44.619797   79.328537   37.322372
H   57.856781   97.008362   41.831844
H   19.941721   72.109421   72.493164
H   90.610817   12.674739   26.706322
H   27.585217    6.486018   15.039693
H   26.138830   12.546646   79.844223
H   42.473778   74.961304   39.847328
H   67.229843   94.901283   84.230232
H   91.116272   88.133102   16.361208
H   43.989830   63.664463   46.971966
H   75.994469   99.731110   35.942276
H   30.001207   88.796913   34.661579
H   66.740150   39.268139   89.227196
H   63.660881   68.270714   39.597050
H   37.874573   83.479095   89.823029
H   35.959770   76.140984   28.068115
H   26.594755   62.002594   70.021263
H   52.660431   60.019810   94.823814
H   73.072037   40.702648   79.950165
