100
TIME:    6.447, STEP:  6447
H   81.338211   30.799391   93.243607
H   22.424824   54.218616   84.609718
H   90.584427   37.726494   47.665798
H   82.558716   67.033905   86.780884
H   37.425858   89.512909   90.901291
H   28.043964   94.223579   17.213928
H   15.083400   96.669151   94.616875
H   13.164810   46.348820   16.251194
H   95.148308   66.440613   94.270775
H   98.668892    8.953426   60.143864
H    0.570800   25.651373   18.742172
H    9.775513   46.845325   34.024025
H   32.670364   71.727577   84.415215
H   35.863487   85.204414   47.860310
H   58.911263   94.155022   40.866016
H   42.304489   47.850868   97.883301
H    5.677677    8.390576   60.284187
H   38.933285   81.128128   76.038124
H   45.679371   48.814133    3.016301
H   18.824768   68.900673   55.274345
H   81.702606   14.397686   82.259712
H   80.460510   52.642471   70.256683
H   99.665459   42.189186   47.894714
H   20.038361   13.953096   28.262815
H   99.003365   74.881104   84.152443
H   17.157259   36.070198   84.170097
H    6.146492   74.484146   27.885641
H   88.562698   57.363869   79.877213
H   51.354836   34.013927   52.418640
H   48.199314   31.276756   95.907028
H   69.787193    0.171084   99.312889
H   72.824799   74.386185    2.432988
H   24.474770   96.789619   78.593628
H   50.503197   82.893692    0.150301
H   20.508286   71.541695   17.291109
H   33.063946   90.385155   99.156960
H   98.150551   68.432251   16.463537
H   97.527245   40.970737   77.387932
H   72.943695   40.946465   19.550043
H   55.957424    8.636374   45.271297
H   94.645325   77.394279   94.234230
H   56.895950   66.885056    9.091142
H   66.770172    2.161473   67.146599
H   67.679657   20.855429   11.089583
H   97.426552   77.525406    7.797206
H   94.906364   85.883499    9.352861
H   92.101852   75.447586   87.349739
H   56.583721   61.771988   67.481750
H   53.480110   98.510231   87.300644
H   61.096027   28.860109   32.757324
H   43.058910   47.227493   21.388073
H   18.447258   65.506897   50.830818
H   42.603024   59.390625   28.436594
H   27.394562    2.011340   16.304657
H   27.475544   23.588928   55.184490
H    1.625490    5.752105   73.155701
H    4.964612    3.520858   69.150780
H   45.998444   68.047905   47.496078
H   98.738846   11.171319   16.546883
H   33.583229   23.325748   80.242577
H   66.382347   78.755630   11.737761
H   70.101295   67.934311    3.646338
H   11.746847   67.351357   91.380310
H   85.743820   76.882645   52.105801
H   88.215286   45.933346   95.949654
H    5.297947   21.773460   27.380796
H   70.313553   71.249939   78.323074
H   35.027489   86.247719   74.406479
H   78.220345   86.546036   55.889240
H   60.997185   72.408623   88.157593
H   17.310925   56.747375   84.813026
H   42.382328   37.561722   28.640602
H   86.634399   99.412842   96.445129
H   88.285988   41.388493   20.094568
H   73.005608   37.832615   90.124039
H   78.070030   20.764587   62.126831
H   52.308193   67.797386    5.080072
H   34.872112   29.166365   70.484612
H   70.668739   34.581852   89.610268
H   83.358353   57.821175   65.506371
H   37.030411   95.978836   65.311111
H   25.075026   86.280579   47.648090
H   25.662010   14.934728   43.923500
H   93.693123   63.842918   74.582726
H   38.414284   45.622231   22.787918
H    2.910257   45.863861   89.482346
H   97.735268   34.603371   30.961294
H   59.714500   89.178406   28.732460
H   89.475937   35.213051   75.462654
H   96.336899   44.029789   54.680138
H   87.860435   21.551701   69.610641
H   55.311611   80.355530   56.364517
H   98.718735   20.960880   17.560984
H   70.344032    4.305140   61.510300
H   45.127922   72.247269   64.231323
H   26.417389   41.146088   34.453156
H   50.869621   37.659653   66.416458
H   25.833124    5.457146   49.457031
H    1.593009   64.641914    5.032555
H   39.658695   13.194847   76.680946
