100
TIME:    3.956, STEP:  3956
H   49.793854   59.235962   95.524185
H   91.226189   19.232035   27.542952
H   47.754768   58.514366   76.905830
H   82.140610   69.662895   23.320807
H   59.737518   89.848351   58.440994
H   66.679451   96.922264   70.522667
H   45.635845   28.465572   99.817284
H    8.952499   30.846218   44.967587
H   56.381905    5.940092   51.071590
H   66.733574   73.185661   62.604889
H   32.277542   25.420551   58.686771
H    4.849411   21.984247   11.336855
H   91.621414   22.364075   31.935040
H   59.202904   92.882362   58.294491
H   28.621567   16.661591   60.612720
H   42.462799   65.722832    4.658305
H    5.989113   43.628803   33.518639
H   85.675499    2.320230   62.395824
H    6.884445   44.313347   71.778564
H   85.937004   21.806162   85.675529
H   29.522064   62.385983   49.869331
H   41.645920   49.335632   82.388351
H   32.925728   62.448326   19.164288
H   51.486244   84.127686   13.265585
H   88.095367   72.429550   65.755775
H   28.516775    9.734820   18.374933
H   20.948172   78.031815   78.463539
H   98.746613   41.092407   97.534477
H   97.189774    8.011485   70.170082
H   52.683517   92.928398   97.879700
H   71.750282   76.797249   96.392815
H   15.541287   43.210541   33.037300
H   49.013248   79.042717   54.184677
H   45.252319   11.178911    5.091803
H   82.435318   59.876854   65.619675
H   16.521746   95.249786    7.031530
H   59.230103   59.658676   20.182486
H    0.484705   86.553902    1.606367
H   78.089355   95.224236   60.946404
H   90.582481   41.835915   49.284641
H   64.887161   91.924637   35.547344
H   76.078384   89.405304   88.657913
H   45.316181   87.222900   87.219719
H   26.741251   79.070282   67.530640
H   13.502325   75.806702   94.635925
H   27.049831   38.371449   99.230568
H   72.640915   39.979088   63.441231
H   56.450687   36.115479   13.352745
H   80.667343    4.814493   86.667755
H    8.846675   90.948738    6.977429
H   43.242802   87.716957   95.128250
H   97.387589   96.651733   14.357227
H   90.933449   44.946960   73.112068
H   85.081139   42.661018    6.384379
H   25.811234    5.282213   33.994114
H   98.516068    8.372732   57.955231
H   47.044262   75.397911   32.236061
H   31.483879    3.291958   11.657297
H    2.278975    5.918984    7.778446
H   97.964478   31.859480   51.092537
H    9.247852   94.600487    5.955706
H   58.508446   91.120193   16.356895
H   42.633381   37.333183   62.195671
H   14.690470   63.314163   19.733845
H   89.342796   44.885082   63.974171
H   58.321785   45.608284   80.093399
H   70.171158   85.131348   58.058147
H    7.097784   43.785538   55.322277
H   54.070030   65.533401   12.118324
H   10.535341   47.118530   93.402924
H   96.410759   26.233845   14.692757
H   47.776451   20.233398   46.261936
H   49.053177   22.626736   60.319206
H   43.124844   99.035423   68.102013
H   52.904964   34.278713    1.289152
H   19.178629   61.116562   29.741276
H   26.133768   83.667038   61.012974
H   17.840405   92.047279   32.915024
H   51.216125   41.898708   61.823730
H    5.515456   93.501335   80.108330
H   88.288803   70.208298   16.429899
H   38.148376   70.063248   55.979370
H   68.094795   73.290649    6.689417
H   22.317045   50.682686    2.098135
H   59.705063    1.433496   64.262589
H   60.247593   54.366447   16.500046
H   31.367025   15.719505   12.180876
H   19.634295   88.567451   54.601997
H   37.782822   73.908562   95.835823
H   16.574759   46.516121   65.632446
H   85.918396   87.044090   17.005289
H   71.000366   93.014214    8.906132
H   39.040688   46.217422   24.928080
H   29.590160   53.194275   93.551567
H   88.192848   95.374626    6.992206
H   20.671005   39.512581   63.116386
H   48.593475   94.707512    9.675661
H   21.387396   49.920654   92.734444
H   20.258507   53.903057   13.679916
H   84.933327   77.114754   16.645735
