100
TIME:    8.388, STEP:  8388
H   50.075676   52.801476   91.466568
H   68.820389   59.398998    6.994834
H   23.952944   77.370438   24.877594
H   82.884506   87.064201   80.388374
H   20.035402   45.092442   38.271332
H   97.940918   92.120750    9.437400
H   13.355554   27.735735   46.405689
H   60.606033   14.271052   38.035675
H   47.434822   79.820618   72.093460
H   45.653908   36.824253   36.144844
H   20.023697    3.752091   31.775221
H   35.695038   44.137585   95.862526
H    8.874763   54.271049   91.530838
H   39.757195   79.221718   95.569847
H   82.486641   20.775314   47.521202
H   64.259979   78.083763   36.763947
H   49.594002   36.771534   36.981087
H   80.436081   86.679008    8.757597
H   75.909668   30.240200    5.275420
H   66.525925   27.685652   87.426674
H   66.520912   21.165173   29.579855
H   66.546074   55.219177    4.962589
H   73.750313   26.405787   92.359055
H   39.691757   37.173065   84.108353
H   29.580650   20.949638   98.487221
H    8.057228   78.825241    1.533618
H   38.772285   93.797195   66.402023
H   24.786905   47.963184   44.035698
H   93.559502   10.117188   60.666649
H   22.626106   83.236252   50.210297
H   46.176823   74.223305   45.747215
H   95.380852   20.761181   22.744865
H   61.197468   54.776192   53.454239
H   32.515701    5.012595   18.378157
H   72.201515   24.580681   35.385204
H    1.792543   42.414642   93.055794
H   84.317162   97.347420   69.406944
H   17.301216    5.445875   14.359740
H   91.011223   98.658531   31.452438
H   73.136948   26.926600   97.984619
H   61.991074   43.994011   39.962124
H   93.318848   74.496704    8.183434
H   83.474335   13.804924    7.348032
H   43.741383   53.437134    0.869845
H   29.059242    0.947190   73.894951
H   69.850121   22.900879   17.238470
H    7.270408   81.005806    5.982759
H   56.699581   81.763672   87.579475
H   10.221710   37.755722    9.872467
H    1.847880   58.404163   97.043083
H   42.925632   59.836311   41.849792
H   12.785311   85.394897   23.416645
H   82.860817   70.645203   15.710150
H   82.444519   70.349716    1.956400
H   72.929756   93.688812   71.689240
H    4.043003    3.710361    7.079483
H   28.014847   47.514351   53.756081
H    1.468404   84.743935   97.498436
H   51.819271   93.190971   67.540283
H    5.498246   72.518448   25.035912
H   88.821762   88.490601   60.400417
H    1.211401   49.867752   15.823738
H   43.522175   34.901398   58.280121
H   19.028320   87.456024   99.402817
H   65.259323   90.908234   76.706711
H   86.060921   25.280876   42.148380
H   14.583460   38.357159   72.034653
H    0.949074   97.255424   67.197510
H   74.959778   47.078148   34.152130
H    0.380662   69.950455   84.052795
H   55.673985   24.681076   61.533821
H   82.535675   73.085350   70.882126
H   60.077957    3.407386   46.682766
H   45.554607   18.543732    4.767627
H   66.529541   40.666096   37.285358
H   23.953928   45.165352   31.523745
H   28.592461   99.796875   39.504562
H   26.061213    2.253597   77.681824
H   63.746323   28.880520   11.266336
H   88.170311   52.085564   98.287621
H   75.024239   16.060068   81.322235
H   70.724167   98.867935   85.263802
H   48.434578   47.395176   28.773785
H   27.230732   29.938848   97.303703
H   43.904739   24.201229   34.630394
H   58.244595   17.158279   24.271545
H   27.370409   93.476219   23.515511
H   90.931145   33.857780    8.607498
H   29.760578   27.141500   59.587776
H   24.726660   64.173355   24.068285
H   67.294212   26.358913   10.601340
H   98.925957   26.336926   93.353477
H   23.140324   79.199455   67.661499
H   57.932655   22.063099   92.388786
H   11.567001   98.382919    8.834253
H   86.735977   64.498962   34.197975
H   96.802696   49.048759   54.787224
H   22.086535    1.498911   10.491373
H    9.128076   73.023613   42.454922
H   60.220844   63.380970   89.697281
