100
TIME:    8.124, STEP:  8124
H   67.929192   77.011681   91.708267
H   76.111649   45.092419   90.349319
H   19.415041   58.376907   27.976379
H   82.840195   97.940666   94.858101
H   22.401033   23.931675   45.429657
H    2.034474   92.406761   83.293221
H   27.191730    9.908404   25.760548
H   81.355911   91.431480   62.276093
H   53.924446    5.203208   88.710281
H   52.864601   33.033604   25.807571
H   44.580338   93.129532   57.204002
H   45.771881   30.904552   14.653954
H   25.709328   70.250168   17.766546
H   52.829094   80.035439   75.480614
H   79.280098   44.357101   60.216454
H   74.874603    1.174116   58.678009
H   70.823250   19.310780   12.948125
H   74.792404   99.525322   17.908535
H   71.796753   19.164333   91.366333
H   73.639938   33.291836   69.452309
H   82.187050   47.447948   36.744564
H   41.236134   54.868713   27.444611
H   77.275093   28.551874   99.912155
H   64.222198   34.014862    3.714435
H   39.022774   41.886833   96.537514
H    9.302059   86.607956   26.377525
H   61.538338    4.770926   61.164120
H   47.061829   35.640553   35.308342
H   87.819145   86.165024   73.146385
H   12.503771   89.770187   29.222881
H   35.785770   50.550011   66.634056
H   78.711662   28.054455   47.184685
H   42.600727   74.091988   29.671034
H   21.360321   29.206490   29.499342
H   78.771706   44.569206   19.322279
H   78.843277   21.735762   93.885628
H   58.995541    7.016073   48.604702
H   28.212929   10.277342   95.730202
H    2.153885    4.410219   57.036278
H   98.003769   51.642151   77.214600
H   80.033920   34.936333   33.742397
H   15.567609   73.461426   94.705406
H   81.202362   12.221291   88.278542
H   60.597889   49.003967   75.056427
H   51.958359   11.362278   51.303001
H   73.258080   17.866486   16.165930
H    5.206586   66.648872    3.447432
H   56.683468   79.044556   71.244637
H    2.505284   59.619431   20.403797
H   96.305420   54.385914   15.502007
H   42.943760   85.323494   39.066223
H   99.954453    9.891584   40.746979
H   77.386330   69.114441   31.042944
H   88.559509   74.655991   90.306656
H   93.949532   70.554169   69.445465
H    3.714191    3.988064   16.066666
H   11.279048   55.131905   28.647560
H   21.125971    9.675528    4.298629
H   30.996933   82.036552   87.806763
H   22.919022   52.226627   32.544701
H   72.168686    0.768824   80.984779
H   10.581306   52.325027   27.768723
H   25.598522   52.916046   76.383392
H    0.899773   86.017914    6.570807
H   54.779892   11.993523   52.121872
H    2.278810   38.405144   26.538639
H   35.765198   29.230694   59.289043
H   19.185692   82.157280   54.576782
H   61.802948   66.047508   50.710541
H   95.018959   56.690334   84.612732
H   64.058922   42.644958   64.700081
H    4.276242   81.850975   51.531376
H   77.290970   16.466105   53.452358
H   51.365459   35.252003   20.452951
H   53.812134   40.277363   17.268637
H   17.712046   28.244617   49.286652
H    4.615095   22.647423   34.821640
H   13.659116   19.514950   63.099430
H   51.087326   29.655972    8.320124
H    1.117276   66.466667   21.031227
H   69.855904   13.328866   65.543304
H   50.914215   97.155899    7.350677
H   31.735193   42.980137    3.631068
H    9.068044    7.347214   21.415691
H   56.759109   40.715328   60.222313
H   64.321213    7.461104    5.938384
H    9.738450   12.671413   10.927010
H   86.685295   54.984306   11.344742
H   24.281055   41.840508   61.746956
H   48.068447   75.033707   14.631010
H   56.490253   12.104564    5.026011
H   79.392632    6.482119   88.322105
H    6.217615   71.279778   47.245972
H   32.419289    6.046529   74.587639
H   16.132095   22.030952    2.768107
H   64.930679   74.924255   47.833839
H   17.757544   33.898247   69.969963
H   22.596117   88.435204   15.791636
H   21.704216   71.883598   64.568336
H   43.823566   70.156418   15.128989
