100
TIME:    3.971, STEP:  3971
H   48.779449   57.860382   95.510452
H   90.808937   20.045309   28.489149
H   48.012604   59.593544   76.729820
H   82.143127   69.044914   22.498606
H   59.603165   91.050667   58.034271
H   66.446907   96.906013   72.008110
H   44.849751   29.478489    0.990310
H    7.773529   32.143864   43.590290
H   56.013176    4.497879   50.127338
H   66.323647   73.401039   63.192314
H   30.882278   26.024113   57.241955
H    4.276863   22.736124   10.269178
H   90.667206   21.456558   30.444160
H   58.460182   92.836128   59.436039
H   28.804043   15.321758   59.891628
H   41.859695   64.410881    3.413145
H    4.782892   44.620892   34.884148
H   85.995934    1.590770   61.875690
H    7.118062   44.942657   72.568893
H   85.532799   21.487616   86.696800
H   28.631943   60.892643   49.462265
H   43.083984   49.355545   81.110962
H   32.725456   62.326332   18.735077
H   50.092583   84.307587   12.151531
H   87.558868   71.240051   65.866554
H   28.447939    9.287900   16.968969
H   19.654703   77.408340   78.761086
H   97.480896   41.792557   98.030235
H   97.515930    9.372388   69.461006
H   53.258698   92.557152   99.072174
H   72.340569   78.142387   95.206062
H   16.488386   42.796150   31.648674
H   50.069881   77.945229   55.535995
H   45.886093    9.804276    4.459903
H   82.062469   58.742973   66.533142
H   17.826086   96.428070    6.979760
H   60.668739   59.109360   21.364431
H   99.864738   86.279472    2.664846
H   77.456268   94.897392   59.492775
H   89.169594   40.431610   50.464870
H   63.862000   92.439392   35.900738
H   74.730270   90.078445   89.362640
H   45.445385   87.312851   88.303246
H   25.783438   79.321594   68.997314
H   12.201189   75.214813   95.919495
H   26.856312   38.657551   99.291451
H   72.758102   40.794823   63.585312
H   56.451488   36.269974   14.280861
H   81.105881    3.572225   86.069458
H    9.161273   91.176933    5.928335
H   43.241657   86.268822   95.286407
H   98.116577   95.259903   13.372463
H   91.244499   45.033936   72.240944
H   84.733696   42.416229    7.046248
H   24.616928    6.596796   34.121716
H   98.534836    8.356939   57.444595
H   47.995152   74.965096   33.662682
H   30.366936    1.875365   11.270916
H    3.461950    6.552801    6.626884
H   96.974564   33.012470   50.665901
H   10.194078   93.902855    4.786205
H   57.976067   90.980576   15.678161
H   43.651791   36.309624   61.167076
H   15.720495   63.395760   19.326550
H   89.938118   43.687000   65.371040
H   57.400307   44.862587   80.980316
H   68.967697   85.649994   58.782330
H    6.061607   44.643387   56.039364
H   54.817673   64.455597   11.177534
H   10.839239   47.873039   93.371338
H   95.934456   25.213203   14.512798
H   46.539688   19.735580   47.360226
H   48.075165   21.884815   59.934570
H   42.794567   98.086250   67.210747
H   53.628117   34.300114    2.426282
H   19.533281   62.077980   28.731964
H   27.495672   82.366989   61.278248
H   18.545132   91.066521   33.743462
H   51.935387   41.854649   61.991158
H    4.779816   92.684456   78.816063
H   88.582230   70.363480   17.326372
H   39.273903   70.161209   54.725098
H   69.043739   73.541046    8.118084
H   23.349016   51.966255    0.728144
H   58.974701    0.495217   62.808502
H   59.902325   54.917480   17.541687
H   32.368843   14.628883   12.896160
H   19.875708   87.366508   54.446014
H   38.094101   73.073372   95.713142
H   15.248544   45.898941   66.168716
H   86.532257   87.854103   17.322062
H   72.110214   94.142143    9.191977
H   40.002220   46.667519   26.088053
H   31.040012   54.104195   94.562996
H   87.933525   94.031090    7.336873
H   21.909943   38.920235   62.341621
H   47.402832   95.568336    8.812977
H   21.442442   50.048370   92.494347
H   19.543938   53.967716   12.423470
H   85.865105   76.729774   15.200730
