100
TIME:    1.170, STEP:  1170
H   38.199623   14.726261   98.074844
H   68.724556   68.182121   51.803463
H   99.866669   58.078411    9.602150
H   81.672989   84.445518   76.032463
H   84.691467   66.538185   33.980949
H    9.873444   99.940544   94.614372
H   91.650978   40.342030   81.948296
H   27.926605   89.822067    0.767803
H   24.867165   73.802628   26.439363
H   42.866280   33.182823   53.507622
H   91.424484   13.319818   27.049479
H   11.183407   82.336861    9.647432
H   68.837463   90.920616    8.840816
H   97.150444    1.469930   46.278217
H   94.731819   65.515289   94.530991
H   54.481293    9.399296   35.920395
H   30.000362   59.370956   79.881203
H   26.146606   37.803680   58.984665
H   63.483063   27.436113   25.002932
H   60.994125   80.968124   95.991722
H   94.847183   39.740479   25.488800
H   74.535027   45.644203   19.631527
H   70.122841   85.106682   98.874100
H   10.335892   50.714054   20.179688
H   87.738518   93.384041   45.194916
H   41.294224   92.747330   79.508408
H   61.189354   93.841141   23.183569
H   33.819984   11.051139    5.446156
H   36.611618   55.243412    1.866538
H   45.855846   61.882431   76.400383
H   62.126225   26.964048   16.828300
H   39.631596   20.187447   90.951332
H   52.771687   82.879753    3.199795
H   27.537224   66.499214   22.460817
H   51.689644   70.477089   95.974335
H   74.281708   76.393753   16.618528
H   92.017357   61.688332    0.656855
H   15.633772   37.539837    5.005919
H   98.120651   55.531944   29.987907
H   52.991959    2.651264   30.086905
H   55.283737   96.328316   69.909225
H   26.468254   64.370125   57.768665
H   21.318731   70.516083   85.983437
H    4.647412   32.378822   95.130623
H   55.165962   85.728470   56.229729
H   62.992870   85.232735   87.922646
H   48.434193   88.855362   37.620796
H   56.301899    7.429666   40.970882
H   99.232780   35.549667   97.801376
H   50.428432   48.557545    1.834487
H   43.455357   56.687706   65.753159
H   61.992607   55.172398   97.252609
H   33.149673   28.792786   34.917725
H   49.596478   88.115242   83.445877
H   47.616821   61.074284   10.334372
H   95.030167   11.302332   52.797241
H   70.423523   55.787178   67.264168
H   38.937683   66.395622   83.418533
H   82.552223   88.203461   21.661453
H   81.810516   17.717543   30.331993
H   33.505688   24.161552   23.173645
H   57.385559   17.055161   42.416649
H   53.594063   27.368614   53.291603
H   23.380667   48.158997   95.373329
H   78.762352   67.399162    4.520638
H   29.470222   84.108955   15.364902
H   93.696884   88.812714   23.550308
H   99.545708   84.450302   22.135366
H   15.213928   65.717590   86.851997
H   54.086555    6.990070   99.269440
H   84.879005   15.794111   48.115116
H   77.494766   12.695526   42.283707
H   30.706116   60.431652   31.748142
H    4.439326   75.340546   33.672020
H   18.582687   30.308470   90.091484
H   53.320522   82.559105   17.203823
H   73.184044   25.138971   11.736786
H   86.949051   74.218239   79.055283
H   17.633135   50.075047   30.734375
H   42.146591   45.233917   20.124512
H   33.777935   41.385845   49.916500
H   29.108864   51.868546   88.942459
H   91.826653   26.784822   41.336521
H   30.655371   12.280007   56.563454
H   95.359619   75.700592   34.333992
H   24.363155   52.032009   23.031776
H   45.296379   18.284401   79.333160
H   74.789856   11.621542   83.580055
H   79.963081   29.027998   18.627548
H   62.894180   61.140320   66.040138
H   71.903755   36.608471   58.169994
H   64.855110   83.501488   55.814400
H   60.353294   62.685867    9.429058
H   60.313622   84.202202    5.706203
H   36.364445   44.928612   42.971245
H   90.558762   49.528679    7.016888
H   69.733292   34.824200   69.901276
H   11.160991   26.199524   37.316422
H   52.975883   41.893703   47.045254
H   11.902390   48.651531   84.997993
