100
TIME:    1.081, STEP:  1081
H   44.218422   22.888008   98.156326
H   71.200249   63.356945   46.189358
H   98.337524   51.675289   10.647156
H   81.658051   88.112206   80.910515
H   85.488632   59.404442   36.394173
H   11.253544    0.037136   85.800743
H   96.315819   34.332058   74.988380
H   34.921829   82.122025    8.939592
H   27.054955   82.359589   32.041588
H   45.298515   31.904942   50.022232
H   99.703049    9.738856   35.622253
H   14.580524   77.875725   15.982313
H   74.499100   96.305214   17.686560
H    1.557199    1.744316   39.505032
H   93.649467   73.465210   98.808792
H   58.059708   17.184216   43.308090
H   37.155739   53.485245   71.777824
H   24.244682   42.131729   62.070114
H   62.097191   23.702204   20.314325
H   63.391731   82.858505   89.932182
H    0.128566   48.600960   27.904400
H   66.001152   45.526733   27.210026
H   71.311119   85.830513    1.420509
H   18.604950   49.646641   26.789909
H   90.921745    0.443045   44.538307
H   41.702312   95.399567   87.850800
H   68.863846   97.540421   21.417448
H   41.329224    6.896771    2.504382
H   34.676422   47.168552    6.073466
H   42.443111   64.085159   69.325035
H   58.625217   18.982553   23.870716
H   34.012058   22.646164   99.190514
H   46.502331   89.391518   95.181969
H   23.776833   74.655556   26.210005
H   53.901878   77.204781   90.554428
H   66.543640   69.402603   16.924765
H   83.480766   64.947609   93.643990
H   19.312019   39.168797   98.725487
H    2.121662   57.431831   38.518387
H   61.374413   10.983301   23.084551
H   61.365685   93.274101   67.812424
H   34.467064   60.375534   53.587284
H   20.552122   69.982376   79.554512
H   10.330488   30.887278   86.428352
H   62.885696   89.240341   48.613205
H   64.141167   83.535194   87.561409
H   47.494434   84.054718   36.860298
H   56.297146    6.513334   35.464062
H   96.630791   42.920387    1.351452
H   48.561817   47.202908    8.059097
H   43.462147   65.279976   64.814758
H   57.667274   63.431271    3.095203
H   31.303431   28.276733   40.087074
H   51.657291   89.566978   79.518448
H   54.702354   53.271709    9.579136
H   94.918808   11.395866   55.827011
H   64.780899   58.355217   58.799553
H   45.564880   74.800484   85.710892
H   75.532555   84.443069   28.494053
H   87.684006   10.876455   32.863365
H   27.891333   28.300156   30.112511
H   60.544342   17.883560   46.443893
H   47.556931   33.437920   59.397316
H   17.269182   47.674858   97.789268
H   75.230110   74.507103   96.232384
H   34.937660   88.533424   10.102697
H    0.837457   85.735413   19.253155
H    5.693677   79.360397   17.880651
H   10.778086   72.112564   92.433510
H   52.283768    2.513572   99.456848
H   87.705070   21.849916   49.182529
H   84.833572   15.649416   35.767189
H   36.509064   64.833839   34.030315
H    6.398118   80.972305   38.961555
H   14.291713   30.181833   83.344780
H   51.216251   76.855370   23.192406
H   65.103752   32.852898   10.161978
H   82.767670   80.037407   74.140564
H   13.366877   50.335789   29.741993
H   46.511307   50.081413   27.791962
H   32.036259   40.465099   44.597088
H   22.431080   51.287308   96.384476
H   86.194893   25.299475   32.859684
H   24.532682    4.664162   64.692635
H   99.693100   81.267166   42.961571
H   26.411747   48.762547   16.851372
H   39.352272   24.755424   75.089310
H   73.357132   18.746902   84.504875
H   78.116158   33.983253   19.355793
H   70.762619   64.802399   62.858273
H   68.261513   31.803061   56.290478
H   58.270008   76.807747   54.118896
H   54.642769   60.019371    2.543664
H   51.711166   78.804024   99.705452
H   37.903095   52.900940   40.926048
H   83.207733   53.043266   11.613997
H   76.797775   29.716642   75.019699
H   10.834214   25.441742   38.740318
H   57.215660   41.510059   54.500172
H    6.375198   50.937778   93.569893
