100
TIME:    2.779, STEP:  2779
H   29.389462   67.172874   96.601761
H   23.967369   55.418900   53.298450
H   27.523283   73.836548   90.716759
H   81.943054   18.155478   87.836731
H   70.279800   95.506622   90.355194
H   84.926399   98.197395   53.960125
H    7.323707   48.989799    7.774357
H    1.462378   29.020830   53.036129
H   85.314812   19.104004   25.158493
H   98.899208   56.285683   16.511591
H   41.759216   78.061707   72.061447
H   49.775337   62.987579   95.117256
H   66.488838   93.573868   48.918602
H   17.481178   96.510201   68.724174
H   14.303280   21.795725   17.187853
H   89.786331   68.667572    2.359800
H    0.636399   65.778549   26.371683
H   60.530830   59.557884    3.200733
H   88.549782   94.934540    9.771936
H   17.648643   46.798771    5.539854
H   99.366928   79.559357   81.815475
H   28.805786   47.773148   82.620773
H   48.640373   72.020790   52.840240
H   60.842300   70.011444    0.680138
H   30.190250   65.772064   57.065514
H   33.916531   44.803379   28.696123
H   22.442173   26.956812   55.112652
H   98.058464   86.154045   58.632755
H   71.597351    1.224923   25.806952
H    7.553069   22.060074    4.311494
H   25.425646   71.253128   89.513313
H   41.224861   75.729622   41.998100
H   66.107758   65.157402   48.151222
H   95.520027   19.043869   54.675873
H   11.692641   48.849091   93.950935
H   14.177529    2.789207   11.086995
H   46.341011    2.761962   27.439512
H   49.128975    8.090443   18.548306
H   27.770027   20.866880   75.006592
H    1.443077   52.023094   56.681026
H   45.326313   51.536282    7.818213
H   81.860466   36.581474   33.360321
H   35.177990   80.164780    2.204190
H    1.901754   59.348526   52.449348
H   15.598303   22.246647   93.917091
H   42.234669   15.921955   94.453316
H   63.445065   75.968964   52.135666
H   56.387829   23.995718   40.526680
H   46.261391    2.293558   33.618225
H   84.166985   73.043022   89.298004
H   43.332600    1.348602   82.718170
H   40.186283    5.868360   91.625175
H   66.526360   38.122314   41.469658
H   12.339741   61.868805   54.445770
H   19.523735    2.126651   23.986219
H   97.043381    9.611355   98.023087
H   72.427330    9.360057   20.293602
H   19.126312   14.445214   41.975784
H    9.451317   56.188473   98.137550
H   75.632782   41.391598   84.569221
H   35.002602   49.334629   97.723801
H    0.282430    2.075958   69.615128
H   62.731846   17.646223   42.908127
H   33.868042   56.911568   51.692944
H   42.625782   38.889904   54.364670
H   30.626717    4.120596   10.501181
H   64.604164   44.439220    1.231665
H   88.401115   76.470947   99.054871
H   95.406212   50.105110   85.938454
H   86.687073   87.918526   95.881348
H   33.787560    6.316207   28.813488
H   44.825630   59.295517   60.088219
H   25.795946   80.845360   90.492424
H   69.034996   73.519775   38.044319
H   96.158958   32.599491   12.064827
H   91.354073   85.680779    8.938662
H   19.269796   85.681778   40.197803
H   62.542797   69.009834   67.915161
H   94.776749   45.355930   48.686287
H   63.237953   57.604984   81.507919
H   65.264603   58.031689   46.082737
H   49.836113   62.376541   54.399391
H   93.627060   53.642853   94.585999
H   41.340984   49.964203    9.598816
H   17.014954   75.057083   78.359596
H   87.331909   11.130890   34.765514
H   52.757851    1.296979   56.056778
H    0.691412   82.801041   66.843544
H   13.354589   39.441444    5.464025
H   20.637299   94.938431   23.560844
H   37.750763   23.490208   92.149124
H   83.908936    4.503589   86.475807
H   63.590015   10.902435   33.906746
H   15.828209   81.800117   14.192750
H    8.542542    0.802885   79.945641
H   23.455627   85.992012   23.910202
H   42.018112   27.161480   77.366646
H   17.068113   39.899200   11.569944
H   76.328362   48.829472   12.267029
H   11.826584    7.322310   30.028517
