100
TIME:    3.678, STEP:  3678
H   68.594147   84.730042   95.778702
H   98.959251    4.159282   10.006939
H   42.976219   38.513603   80.167885
H   82.093948   81.116142   38.559383
H   62.227539   67.565422   65.978928
H   70.989265   97.223442   42.990837
H   60.204800    9.693029   78.077324
H   30.802750    6.796330   70.492943
H   63.215675   32.668777   68.571175
H   74.330894   69.193993   51.717941
H   58.136429   14.234631   85.465736
H   15.460632    8.049767   31.124460
H    9.305350   39.183380   59.564941
H   72.968010   93.739235   37.137798
H   25.239677   41.493271   73.975380
H   53.640320   90.037651   27.735498
H   28.344368   25.242100    8.211203
H   79.736778   15.839723   72.033875
H    2.554747   32.650124   57.132130
H   93.428276   27.709887   66.747978
H   46.018982   90.060547   57.413628
H   14.993790   48.966583    6.062583
H   36.637428   64.709282   27.118992
H   77.315437   80.793518   33.913174
H   98.038483   94.474930   63.702675
H   29.792540   18.017874   44.431625
H   44.921024   89.586868   72.949013
H   22.203188   28.116302   88.346428
H   91.145004   82.789078   83.311623
H   42.023514   99.808830   75.779175
H   60.809689   51.868382   18.387291
H   97.988503   50.890579   58.773170
H   29.430456   99.382835   29.140242
H   33.506378   36.655922   16.802814
H   89.345444   80.891441   48.691994
H   92.347618   73.412262    7.991005
H   32.567368   69.839340   98.277458
H   11.974530   91.639992   81.987526
H   89.822571    1.281504   87.886986
H   16.767292   67.862045   27.411283
H   83.886826   82.384506   28.997786
H    1.063439   76.929749   75.596970
H   42.921604   85.555817   67.138359
H   44.493469   74.412628   40.349258
H   37.616467   86.776367   70.847107
H   30.636395   33.069019   98.102211
H   70.469040   24.860302   60.770927
H   56.435841   33.252167   96.151756
H   72.539780   27.837677   97.756195
H    3.016124   86.719521   26.420391
H   43.264011   14.556286   92.197067
H   83.876999   22.447994   32.608189
H   85.168648   43.335022   89.256905
H   91.520409   47.197777   94.117218
H   47.945694   80.916931   31.629396
H   98.168228    8.665426   67.419006
H   29.421106   83.419426    5.795823
H   52.184563   29.546196   18.818436
H   80.352577   94.172653   29.120724
H   16.309456   10.490690   58.999519
H   91.711372    7.529004   27.630161
H   68.375206   93.707779   28.936378
H   23.759317   56.303154   81.258965
H   95.600822   61.801910   27.282383
H   78.309502   67.089241   38.085590
H   75.399849   59.428535   63.655869
H   92.475296   75.519104   44.636639
H   26.301308   27.886461   42.032269
H   40.213722   85.508713   29.554714
H    4.903101   33.134964   93.988312
H    5.238558   45.148994   18.027985
H   70.698410   29.459625   25.907288
H   67.179001   36.376995   67.446770
H   49.245968   16.627888   84.620140
H   39.502544   33.882092   80.215126
H   12.606011   43.298279   48.446255
H    0.893083    7.761635   56.096561
H    4.779459   10.224695   17.561312
H   37.885818   42.715282   58.720749
H   19.149422    8.641464    4.058281
H   82.850632   67.332260   99.814774
H   17.288620   68.247696   79.225220
H   50.506069   68.649963   80.211273
H    3.191183   26.893639   27.488525
H   73.241104   18.822918   91.211655
H   66.645691   44.153969   97.194550
H   12.800039   35.932365   98.924438
H   15.160105   10.824648   57.492882
H   32.013779   89.387413   98.109505
H   41.154034   57.954521   55.695343
H   74.541504   72.031853   11.134439
H   50.429787   72.109917    3.608684
H   21.220924   37.875641    3.429858
H    2.719786   36.330429   74.806419
H   92.998970   20.276485    0.604371
H   97.709274   50.490730   77.475365
H   70.660065   78.753563   25.664396
H   20.367208   47.553650   97.184242
H   33.501854   52.704708   36.966064
H   67.664375   84.249702   43.426636
