100
TIME:    4.817, STEP:  4817
H   91.568764   80.277931   94.735916
H   67.441505   65.891556   81.833435
H   62.554520   20.458115   66.802849
H   82.285126   34.190788   76.127693
H   52.025620   58.861298   35.095093
H   53.326176   95.989479   55.790470
H    0.512148   86.604431   67.148682
H   41.279594    5.334331   65.913933
H   35.216881   23.158600   96.873360
H   43.203743   85.548347   96.316803
H   52.189423   60.064976   75.751129
H   71.990791   65.141975   50.049461
H   36.684311   70.296654   46.380615
H   16.571877   90.228523   23.815714
H   39.093468   39.753265   19.223042
H    7.842361   90.416519   33.188416
H   36.752724    0.578840   11.898863
H    4.076311   60.437397   32.543407
H   20.294804   80.432785   17.141077
H   62.735977    3.521605   44.296364
H   78.429115   76.670135   26.502949
H   24.190826   50.478622    9.066193
H   21.430138   55.445869   94.529388
H   71.489990   94.453583   49.321213
H   57.300323    4.146553   72.114479
H   24.587717   84.254135   37.449383
H   46.703888   42.240406   95.542702
H   26.097645   81.280991   25.996065
H   15.912475   86.128105   29.469330
H   85.698853   71.618858   66.326271
H    5.633493   54.004635   28.273232
H   69.905556   19.424522   53.330223
H    9.659817   16.047716   31.750357
H   81.630936   32.273346   68.818672
H   61.033813   94.791702   18.050453
H   91.371521   62.716801    4.282993
H   41.811913   28.127510   88.026169
H   64.894432   70.801659   62.362507
H   41.746128   76.463432   77.509323
H    9.486238   61.232750   17.025488
H    6.044299   21.467001   55.832134
H   98.695946   28.046946   29.106440
H   52.732479   92.386063   49.410301
H   71.760986   93.496033   51.716461
H   38.816647   41.836594   68.314232
H   15.941797   54.793720    2.729475
H   79.367477   86.802269   71.705360
H   56.496670   44.983505   66.626595
H    5.838057   33.505650   52.323265
H   26.904606    4.049170   46.756256
H   43.177113    4.592903    4.205725
H   39.229027   16.757406   57.836044
H    8.790439   49.939331   23.104746
H   65.137932   28.610123   44.376732
H   57.258392   80.740730   41.318447
H   99.593369    7.466706   28.644760
H    1.629705   50.554298   14.124344
H   67.371719   21.981504   89.479721
H   70.182381   42.299545   41.679474
H   41.146061   98.037857   26.603645
H   63.560760   54.557972   38.824371
H   27.950319   83.106125   77.401047
H    1.085994   78.579514    3.154314
H   73.815163   68.003403   96.356125
H   23.516699   76.118896   44.155582
H    5.429951    2.805767   31.001959
H    1.091109   14.899390   99.626205
H   47.622688   93.026077   96.483055
H   96.979660    3.667422   58.120041
H   27.979078   90.423340   91.589905
H   69.070961   67.651291    4.363437
H   76.782928   91.657944    9.299544
H   92.913498   80.037422   38.241104
H   24.167744   44.550549   16.943729
H   94.418709   35.507099   66.559296
H   39.535675   16.296827   71.805557
H    4.306924    9.040405   76.239708
H   58.291744   35.748432   80.465080
H   92.506248   39.369678   71.428963
H   63.290405   46.610027    5.932413
H    5.133214   79.115738   67.889732
H    2.749878   75.686234   83.982689
H   22.560320   87.676575   88.690414
H   81.551376   24.360300   23.458694
H   17.781172   47.579437   80.798332
H   40.429195   85.991173   76.290253
H   88.871254   53.117783   53.236710
H   33.491760   19.633913   45.648575
H   55.650253   25.969080   88.793953
H   40.451168   11.089996   96.414352
H   21.154198   33.536243   35.188030
H   34.708118   57.763611   25.312040
H   94.232658   72.054985   91.510544
H   12.808635    5.418852   51.603443
H   73.307701   18.251740   26.775223
H   91.786011    5.514022   18.644875
H   80.251701   44.118313   60.158905
H   24.547041   57.251556   78.952873
H   79.242401   57.614491   41.563148
H   38.413036   55.019619   33.703320
