100
TIME:    6.614, STEP:  6614
H   70.044510   15.485228   93.090714
H   17.813187   63.268612   95.138954
H   93.456268   49.741341   45.704945
H   82.586746   60.153717   77.627686
H   35.930054    2.898664   86.373108
H   25.453701   94.042656   33.752567
H    6.331197    7.945794    7.676565
H    0.038935   60.795940    0.917607
H   91.043129   50.384293   83.759377
H   94.107582   11.351618   66.682594
H   85.036865   32.371021    2.655917
H    3.401154   55.216221   22.137119
H   22.013718   61.628689   67.821220
H   27.594860   84.689674   60.569546
H   60.939644   79.237755   32.835308
H   35.589935   33.244484   84.020996
H   92.248482   19.436047   75.486855
H   42.504612   73.001862   70.248573
H   48.279827   55.820457   11.814105
H   14.325890   65.353554   66.644493
H   71.792587   97.772064   77.726433
H   96.470963   52.864166   56.035080
H   97.435768   40.830986   43.116806
H    4.521626   15.950899   15.859999
H   93.030342   61.637787   85.385780
H   16.395979   31.133026   68.465431
H   91.746223   67.542801   31.199598
H   74.471054   65.158867   85.396652
H   54.986046   49.165630   44.524261
H   54.602985   27.143547    9.182880
H   76.359047   15.146068   86.100380
H   83.369324   69.771362   86.972969
H   36.238209   84.570915   93.638306
H   57.559212   67.589096   93.114685
H   16.352142   58.897438   27.452127
H   47.581142    3.465266   98.632027
H   14.168008   62.316528   29.622534
H   90.624123   37.914150   89.173439
H   65.895325   37.307610    3.366907
H   40.228550   93.002533   58.411182
H   83.231857   83.125221   98.168678
H   42.822144   67.539948   17.616840
H   68.207367    3.163321   79.209862
H   57.016201   23.658468   27.417830
H   82.939934   70.935715   22.088247
H   92.750572   89.068771   10.031324
H   93.406540   84.529434   88.952568
H   56.592640   63.492035   77.814774
H   58.361221   84.678505   80.639603
H   64.601318   31.402594   21.080713
H   43.047443   31.104883   23.148254
H   26.565243   50.010033   39.868385
H   46.067326   60.358948   18.737440
H   23.527641   99.286575   23.673466
H   14.178307   38.224251   56.605122
H    1.833488    5.576437   67.470627
H   15.551501   98.702003   85.033821
H   33.563141   52.276985   43.194687
H   11.909715   18.228390    3.726545
H   22.563461   36.162395   75.492699
H   76.916679   70.988663   98.717239
H   64.174141   66.379898   96.090363
H   23.084505   55.955727   79.928619
H   97.210800   77.792358   47.571247
H   94.843201   32.594700   11.501895
H   95.039124   13.471464   37.255142
H   56.915024   77.024200   86.385635
H   23.491707   95.798439   82.390045
H   86.542824   74.546478   45.414791
H   64.380089   80.807549   87.805939
H   12.007687   45.384872   82.810127
H   28.612875   32.019348   40.868050
H   75.745865   91.151520   92.164124
H   84.608910   30.819687   10.172445
H   81.057976   38.070873    2.783692
H   82.017220   31.467739   50.890465
H   67.475189   53.342953    8.041895
H   42.718075   18.246614   79.706612
H   78.677788   34.091320   91.473015
H   75.168381   48.724037   51.119133
H   40.298500   97.706528   75.292480
H   37.606239   87.363571   33.677486
H   36.225647   17.727453   59.828201
H    5.182744   78.133324   59.329487
H   30.282785   35.175812    6.599276
H   99.066696   51.998695    1.079308
H    8.888903   22.461113   38.924477
H   62.400322   75.815552   27.000946
H   92.941513   25.915022   74.096809
H   81.572525   37.158520   60.649338
H   94.694756   30.569206   73.137375
H   67.667923   92.915695   59.545967
H    9.423631   25.971951   30.475351
H   86.484444   14.436536   72.770874
H   42.240791   57.288658   68.068939
H   40.210892   34.551300   25.827438
H   37.613792   47.243500   56.812225
H   25.510775   13.720330   46.104851
H   93.637505   65.363060   91.044945
H   50.031216    8.909382   60.593777
