100
TIME:    7.700, STEP:  7700
H   96.603020   15.894322   92.096451
H   87.821854   22.115185   63.616360
H   12.126894   27.872364   32.953526
H   82.769028   15.410358   18.099072
H   26.200380   89.946297   56.926361
H    8.610143   92.866112   41.302948
H   49.412357   81.278778   92.603180
H   14.681480   54.748943    1.204661
H   64.347176   45.969833   15.398930
H   64.445412   26.945589    9.204636
H   84.019791   76.068863   98.046844
H   61.955902    9.651743   44.834297
H   52.746315   95.915573   59.901188
H   73.823357   81.342323   43.214001
H   74.130196   82.230881   80.608429
H   91.922333   38.258911   93.873322
H    4.918812   91.266388   74.349731
H   65.728317   20.156799   32.606071
H   65.191162    1.375968   69.026367
H   85.065475   42.294460   40.584389
H    7.347794   89.657715   48.250973
H    0.586838   54.305847   63.552155
H   82.936104   31.998621   12.043700
H    3.616527   28.942598   35.204636
H   54.187813   75.512131   93.406166
H   11.301205   99.107468   66.279152
H   98.098984   22.396521   52.750240
H   82.837883   15.849662   21.292913
H   78.599785   47.696033   93.189598
H   96.246017    0.264103   95.516930
H   19.098360   12.529909    0.179588
H   51.939938   39.767895   86.436516
H   12.734190    5.114119   91.473763
H    3.444598   68.063667   47.362030
H   89.323830   76.671989   93.525467
H   41.985249   88.525574   95.218391
H   18.329529   22.545034   15.195056
H   45.736534   18.037182   65.807716
H   20.051868   13.647371   98.125511
H   37.939590   91.334930   43.854736
H    9.011431   20.389151   23.753141
H   51.299919   71.798706   73.057701
H   77.553436    9.677879   57.651524
H   87.672806   41.886620   33.600788
H   88.737770   28.089939   15.019779
H   78.731468    9.780944   14.443365
H    1.892065   43.590767   99.375755
H   56.657589   74.677490   45.009899
H   90.109871   94.736702   37.317787
H   87.403076   47.932362   45.148643
H   42.972874   26.258486   34.595642
H   79.348373   49.236317   68.579742
H   68.593971   66.655945   55.666786
H   98.380554   81.572128   71.596207
H   27.709801   33.395866   65.841827
H    3.186100    4.434071   30.500626
H   84.398376   67.366158   88.321449
H   52.697678   49.717567   15.220336
H   97.556343   64.121880   20.356972
H   50.897354   19.635380   44.604271
H   45.422832   20.486313   14.044042
H   25.629890   56.271561   46.954338
H   96.813179   81.848663    5.458344
H   71.785942   83.708221   18.083073
H   37.948898   45.858433   12.636340
H   28.324326   59.483513    1.467983
H   69.783020   14.571989   38.818829
H   48.474144   57.908745   34.307129
H   40.669586   96.513451   77.302734
H   86.407753   35.395229   85.512024
H   77.522423   71.494141   69.785286
H   39.191135   95.929100   20.453444
H    4.936205   37.438923   64.324768
H   60.698040   62.085194   45.645325
H   33.387207   39.653034   85.120941
H    7.687862    1.070045   77.816475
H   66.107140   59.346947   27.301592
H   93.740326   47.237728   39.682255
H   30.756208   30.901394    3.588327
H   21.909828   89.563591   57.559303
H   61.555244    8.942391   40.201385
H   19.098679   94.406265   42.822071
H    4.916498   35.889317   63.253189
H   79.896553   71.064819   60.140240
H   77.404007   67.238365    1.324460
H   74.077560   91.887695   76.494522
H   81.420372   43.499748   90.708992
H   79.866203   88.912415   15.740921
H   15.480611   65.448540   65.214729
H   85.555420   92.476089   99.474579
H   39.138447   89.209511   96.071701
H   48.020924   74.593063   80.241417
H   79.038391   58.558910   14.457400
H   91.441414   80.322960   45.997921
H   23.463913   60.011482   93.024933
H   29.910049   91.667908   69.733864
H   51.412376    9.566882   94.354362
H   23.414537   67.453880   24.304178
H   41.902702   70.052666    0.080675
H   17.488543   81.038498   55.975590
