100
TIME:    4.137, STEP:  4137
H   37.553375   42.637299   95.358475
H   86.222023   29.041544   38.956871
H   50.865982   71.536446   74.781975
H   82.170990   62.205925   13.399493
H   58.116318    4.356296   53.533203
H   63.873356   96.726173   88.447014
H   36.150303   40.688099   13.971795
H   94.726250   46.504475   28.348209
H   51.932579   88.537628   39.677616
H   61.787117   75.784554   69.692047
H   15.441360   32.703526   41.252651
H   97.941109   31.056894   98.453392
H   80.076645   11.417362   13.949051
H   50.240730   92.324471   72.068359
H   30.823444    0.494214   51.911541
H   35.185349   49.891960   89.633728
H   91.434120   55.600002   49.995781
H   89.542076   93.518196   56.119541
H    9.703526   51.907028   81.315201
H   81.059593   17.962370   97.998863
H   18.781265   44.366352   44.957397
H   58.998566   49.575912   66.974518
H   30.509117   60.976265   13.985280
H   34.669395   86.298492   99.822601
H   81.621613   58.075691   67.092506
H   27.687540    4.353406    1.394303
H    5.340319   70.508560   82.053932
H   83.473633   49.540878    3.517231
H    1.125474   24.432869   61.613899
H   59.624023   88.448692   12.268379
H   78.873070   93.028587   82.072670
H   26.969770   38.210228   16.281212
H   61.763287   65.799690   70.490585
H   52.899857   94.591461   97.466743
H   77.936279   46.194695   76.642181
H   32.259586    9.456753    6.422390
H   76.590652   53.030258   34.444630
H   93.002953   83.242455   14.378759
H   70.450104   91.280327   43.405952
H   73.533638   24.890930   63.526073
H   52.516876   98.136017   39.811626
H   59.811142   97.527878   97.161621
H   46.875240   88.308304    0.294255
H   15.183638   82.102783   85.228516
H   97.801857   68.664581   10.124778
H   24.714695   41.823750   99.965218
H   74.054977   49.822289   65.178871
H   56.460354   37.979721   24.552010
H   85.959030   89.823639   79.448303
H   12.642825   93.702293   94.317848
H   43.228992   70.242790   97.036682
H    6.183569   79.856979    2.474477
H   94.686790   45.996460   62.600315
H   80.888664   39.707230   14.370933
H   11.400059   21.144846   35.533840
H   98.742538    8.182165   51.793564
H   58.518330   70.175270   49.450615
H   18.006096   86.198830    6.994965
H   16.553549   13.566914   93.883232
H   86.019516   45.772251   45.944466
H   20.665789   86.182396   91.843147
H   52.084404   89.435471    8.166987
H   54.922192   24.981838   49.783958
H   27.119444   64.299179   14.819149
H   96.526344   30.428303   80.829689
H   47.202614   36.610207   90.795532
H   55.649399   91.389679   66.796616
H   94.594734   54.136917   63.975124
H   63.091583   52.527893    0.766103
H   14.202375   56.222939   93.021790
H   90.663368   13.918165   12.521259
H   32.852844   14.226293   59.514629
H   37.251831   13.674229   55.677933
H   39.139507   87.582069   57.347404
H   61.631001   34.536945   15.010585
H   23.458101   72.716637   17.562248
H   42.567856   67.979782   64.213951
H   26.344112   80.212791   42.911507
H   59.895210   41.367054   63.844017
H   96.638794   83.644325   64.514977
H   91.829483   72.080826   27.247339
H   51.729729   71.245316   40.844482
H   79.545387   76.312103   23.928814
H   34.769341   66.171089   85.565903
H   50.892029   90.112572   46.716614
H   56.081356   61.015579   29.069183
H   43.455605    2.559324   20.811781
H   22.547346   74.076073   52.719803
H   41.538925   63.830605   94.355476
H    0.571648   39.068817   72.103439
H   93.325653   96.818245   20.827677
H   84.392532    6.625093   12.355326
H   50.643181   51.648582   38.925091
H   47.085041   64.173950    5.755737
H   85.063683   79.162621   11.151193
H   35.620850   32.364937   53.767555
H   34.226379    5.094628   99.265961
H   22.051619   51.461761   89.837273
H   11.636040   54.683277   98.518929
H   96.176781   72.469337   99.209259
