100
TIME:    6.297, STEP:  6297
H   91.482254   44.555138   93.380936
H   26.567013   46.089878   75.152321
H   88.004929   26.934982   49.427044
H   82.533539   73.213715   95.002319
H   38.769394   77.489746   94.968521
H   30.370548   94.386086    2.358917
H   22.944885   86.541130   82.886681
H   24.954514   33.372364   30.024158
H   98.835594   80.862457    3.712485
H    2.766249    6.799442   54.270756
H   14.523422   19.615759   33.190865
H   15.500992   39.326557   44.701363
H   42.242203   80.798164   99.320000
H   43.290703   85.666756   36.444828
H   57.089363    7.553741   48.079227
H   48.335526   60.970375   10.334798
H   17.739967   98.469292   46.629097
H   35.725506   88.427170   81.238319
H   43.343632   42.521027   95.113419
H   22.865677   72.086708   45.061638
H   90.603821   29.331081   86.331520
H   66.079865   52.443344   83.030579
H    1.668333   43.409126   52.186249
H   33.975628   12.158663   39.403446
H    4.368081   86.776093   83.044655
H   17.841043   40.504784   98.276085
H   19.081177   80.718887   24.909033
H    1.219779   50.362373   74.919632
H   48.093269   20.405102   59.509399
H   42.447514   34.989220   83.982285
H   63.884308   86.719704   11.180336
H   63.353672   78.531235   16.319191
H   13.908955    7.764193   65.080444
H   44.165459   96.640335    6.469266
H   24.241348   82.898811    8.164691
H   20.025072   78.636650   99.628456
H   83.763039   73.925415    4.644355
H    3.727168   43.716175   66.802147
H   79.274567   44.214897   34.085838
H   70.085648   22.678997   33.469006
H    4.896735   72.246727   90.700294
H   69.537094   66.296829    1.433429
H   65.479279    1.261639   56.312141
H   77.258362   18.337729   96.423424
H   10.438019   83.444290   94.961166
H   96.842705   83.022476    8.743464
H   90.929977   67.290237   85.910072
H   56.575710   60.227036   58.200596
H   49.095879   10.932991   93.283615
H   57.947758   26.576441   43.245834
H   43.069210   61.708847   19.807072
H   11.155846   79.425201   60.677315
H   39.491375   58.520874   37.148746
H   30.867844    4.458945    9.685966
H   39.418816   10.443551   53.908474
H    1.438665    5.909890   78.262054
H   95.455025    7.849292   54.884575
H   57.167877   82.213402   51.359604
H   86.907944    4.832723   28.061928
H   43.481224   11.795827   84.508934
H   56.920368   85.731949   23.432583
H   75.425087   69.330490   10.433631
H    1.563249   77.586952    1.666260
H   75.444138   76.065536   56.178753
H   82.262070   57.914165   81.980995
H   14.512157   29.230431   18.511625
H   82.348160   66.063477   71.081253
H   45.388969   77.669228   67.235611
H   70.745064   97.324081   65.297272
H   57.958778   64.864677   88.473450
H   22.074528   66.953217   86.612038
H   54.749958   42.539902   17.658279
H   96.414520    6.832130    0.290429
H   91.588753   50.881367   29.006655
H   65.772942   37.618610   78.753189
H   74.524651   11.150978   72.220306
H   38.685146   80.779564    2.419750
H   27.824841   38.974930   62.201126
H   63.475063   35.022449   87.937141
H   90.714615   65.992256   78.429039
H   34.095001   94.427017   56.345814
H   13.819244   85.307831   60.196537
H   16.173714   12.426469   29.637840
H   83.372841   51.007225   88.283592
H   45.717903   55.005241   37.328781
H    6.362796   40.353531   79.065933
H   87.717110   45.509590   23.808737
H   57.302086    1.181025   30.287712
H   86.363144   43.564949   76.689461
H    9.598916   50.201588   49.318581
H   81.721825   13.452145   66.442917
H   44.213131   69.073944   53.506927
H   89.103409   16.459919    5.961253
H   55.847301   95.204903   51.396011
H   47.721153   85.682632   60.784367
H   14.028014   47.069550   42.200806
H   62.776054   29.051603   75.043015
H   26.122660   98.035004   52.467972
H    8.738542   63.994190   17.597023
H   30.342058   17.044067   91.130257
