100
TIME:    9.045, STEP:  9045
H    5.645963   92.552162   90.865067
H   50.675095   94.998505   48.421749
H   35.246136   24.637146   17.165844
H   82.994781   59.996635   44.375755
H   14.148207   97.753891   20.458488
H   87.755493   91.408974   74.503143
H   78.920906   72.100563   97.783943
H    8.967133   71.108597   77.712273
H   31.284508   16.652328   30.736280
H   27.708513   46.257801   61.869057
H   58.911163   30.186253   68.488441
H   10.617439   77.069786   49.095787
H   66.980011   14.506742   26.240532
H    7.227561   77.196663   45.569187
H   90.466560   62.088844   15.927338
H   37.844040   20.620323   82.226624
H   96.761818   80.226875   96.790382
H   94.486557   54.709206   85.982010
H   86.145218   57.804005   39.886868
H   48.826031   13.733324   32.158226
H   27.533592   55.759712   11.747789
H   29.533304   56.091354   49.012970
H   64.978416   21.064955   73.562134
H   78.647415   45.032684   35.313610
H    6.083970   68.847565    3.337759
H    4.958242   59.456894   39.707241
H   82.118843   66.489029   79.434555
H   69.350006   78.629730   65.754509
H    7.845587   69.725182   29.609318
H   47.818062   66.975662    2.440578
H   72.034813   33.138645   93.767487
H   36.864033    2.610136   61.923119
H    7.473886    6.707502   12.641988
H   60.274994   44.802368   90.700584
H   55.850700   74.836586   75.358566
H   58.903782   93.875198   90.990639
H   47.331894   73.287361   21.175802
H   90.145729   93.424065   60.720467
H   63.281872   84.342796   67.784729
H   11.255903   65.421654   49.676910
H   17.089823   66.535843   55.440762
H   37.950638   77.073135   41.723934
H   89.128448   17.746567   54.801716
H    1.791744   64.469460   65.105293
H   72.068344   75.032326   30.116896
H   61.370506   35.430340   19.907633
H   12.407069   16.736197   12.292059
H   56.739681   88.530563   28.230488
H   29.424644   83.343300   83.665680
H   15.638554   68.406334   51.107014
H   42.880520   96.406715   48.777084
H   44.716396   24.429783   80.288002
H   96.484825   74.454712   77.553879
H   67.226532   59.630920   30.946266
H   20.618633   51.265938   77.273178
H    4.861296    3.019261   84.713638
H   69.664490   28.557030   16.242361
H   52.546326   22.698683   80.576195
H    3.638465   20.952330   17.100466
H   62.140713   23.016697    6.349266
H   30.266565   57.935322    9.177444
H   77.893181   43.752487   86.097572
H   88.125809   90.068138   13.227661
H   64.145203   91.034958   81.568298
H   91.334412   38.434811   37.890491
H   45.700172   92.619957   80.995354
H   61.871262   61.068851    3.754086
H   55.565765   34.831245   98.605911
H    7.702507   99.870331   92.945587
H   13.724242    2.952494   82.659317
H   34.806896   79.977745   53.654152
H   28.433748   51.270897   19.041023
H   17.241028   70.906578   29.835712
H   31.093510   76.961159   65.730415
H   98.178543   41.633511   87.099701
H   39.487701   87.272697   87.315536
H   88.261551   42.933079   51.158653
H   56.923733   59.296364   13.970618
H   95.254936   26.950703   18.598833
H   55.949883   16.295126   41.686333
H   87.886345   22.857035   20.590736
H   20.025917    3.131789   30.299589
H   89.990181   58.382603   91.342781
H   72.429756   86.159279   37.296139
H   11.914886   83.101120   70.942368
H   43.121845   41.291985   69.895432
H   71.249947   45.706978   54.843712
H    1.497408   81.285133    1.795402
H   43.395023   90.561531   54.214363
H   66.640274   37.140907   47.552750
H   94.181328   61.832462   24.475975
H   47.537304   75.749985    5.872583
H   65.255447   98.908653   18.468317
H   21.429758   61.922596   36.687984
H    0.206548   39.533939   23.930029
H   41.001526   38.554199    0.262692
H   44.652519   86.752876   17.001911
H   20.818369   34.007298   97.300438
H   77.830162   75.860695   87.423714
H    1.032164   46.523891   26.406322
