100
TIME:    8.309, STEP:  8309
H   55.418205   60.046196   91.538895
H   71.002243   55.117863    2.013577
H   22.595011   71.686768   25.804882
H   82.871246   90.318901   84.718330
H   20.743299   38.760242   40.413406
H   99.165649   92.206337    1.613753
H   17.495857   22.401041   40.227787
H   66.815277    7.436641   45.289436
H   49.376793   87.416122   77.065918
H   47.811653   35.689930   33.051674
H   27.372086    0.573439   39.384598
H   38.710457   40.177700    1.485857
H   13.912466   59.052444   99.381897
H   43.668861   79.465218   89.558296
H   81.527107   27.831985   51.320160
H   67.436325   84.993370   43.321564
H   55.946693   31.546535   29.789404
H   78.747253   90.523170   11.495914
H   74.678909   26.925831    1.113574
H   68.654739   29.363329   82.047981
H   71.208885   29.030094   31.724039
H   58.972263   55.114304   11.690140
H   74.805077   27.047987   94.619263
H   47.032310   36.227997   89.975250
H   32.405952   27.214935   97.903786
H    8.429790   81.154160    8.968000
H   45.584854   97.080826   64.834946
H   31.452711   44.275730   41.424103
H   91.841743    2.949772   64.401115
H   19.597126   85.191483   43.929932
H   43.067379   67.138908   51.997444
H   90.392723   22.943638   30.058296
H   55.632534   60.556297   46.337296
H   29.177570   12.252375   21.706087
H   74.167595   30.562096   30.578497
H   94.925201   36.226494   93.304115
H   76.739738    0.240512   63.182034
H   20.566463    6.891655    8.785163
H   94.345482    0.379843   39.108192
H   80.578156   34.322395   91.769348
H   67.390259   41.283569   38.100918
H   99.976517   74.186905    4.150391
H   82.794464   13.331034    1.641911
H   48.785564   52.110542   93.145416
H   35.911720    4.063828   67.134819
H   70.869926   21.394375   16.917521
H    6.652781   76.709602    5.224107
H   56.694759   80.949997   82.691399
H    7.912679   44.298271   13.023951
H    0.189645   57.201733    2.566606
H   42.931057   67.463158   41.016830
H    8.945820   92.725204   28.602768
H   81.222618   70.187134   20.298372
H   84.274384   71.638336   98.470413
H   79.219765   86.765945   71.017807
H    3.944608    3.793462    9.768829
H   23.006828   49.793846   46.242546
H    7.350820   92.204430   99.533226
H   45.588329   89.853096   73.604874
H   10.711341   66.446625   27.282860
H   83.838455   92.164795   66.559883
H    4.015297   50.603073   19.398190
H   38.158550   40.292145   63.697388
H   13.603519   87.025681    1.547679
H   62.123604   97.217529   69.349884
H   90.914040   29.208214   37.477283
H   20.921988   35.626225   68.220627
H    6.406267   92.737419   63.420853
H   71.022797   52.754585   39.107109
H   98.776207   65.982132   84.220352
H   58.183117   30.056454   62.481300
H   89.041458   75.708397   65.091171
H   65.228821    7.315060   48.708515
H   47.293461   23.543613    9.461378
H   62.723953   40.549770   31.295507
H   22.086092   40.101883   36.839180
H   21.417355    6.634674   38.103233
H   22.349951    7.418926   73.318115
H   59.958214   29.112568   10.384705
H   92.044609   56.389000    5.093479
H   73.477654   15.242776   76.600510
H   64.795792   98.355621   91.873253
H   43.437408   46.074009   21.250004
H   21.795685   23.178415    4.519164
H   47.751312   29.142948   42.288582
H   60.063007   14.256473   18.785568
H   22.094179   99.220161   19.748497
H   89.660606   40.179733    9.426598
H   28.120872   31.539865   60.233894
H   31.711306   67.423233   21.244230
H   64.061211   22.093449    8.933005
H   93.080757   20.395592   91.847878
H   18.076252   76.829552   61.552307
H   50.297974   17.270252   87.061928
H   12.933071    5.459286    7.019005
H   80.210907   67.618652   38.278404
H    3.073338   44.515083   59.330544
H   22.239023   97.589790   12.077436
H   12.891322   72.682472   49.072208
H   55.314083   65.408340   97.307251
