100
TIME:    0.498, STEP:   498
H   83.644936   76.352211   98.690079
H   87.417427   31.745476    9.414016
H   88.320770    9.732259   17.492531
H   81.560196   12.132185   12.865733
H   90.710510   12.674417   52.202141
H   20.293976    0.671638   28.063906
H   26.870747   94.964287   29.397020
H   80.744476   31.685268   62.470367
H   41.386208   38.412796   68.740944
H   61.231026   23.536148   27.190973
H   53.932281   86.280746   91.779655
H   36.833553   48.652779   57.480705
H   11.585067   31.577835   75.631279
H   30.423756    3.541819   95.137367
H   86.559456   25.540289   26.833536
H   81.500336   68.179451   91.701645
H   84.028099   14.930527   18.696703
H   11.786387   70.482880   82.281540
H   53.018951   99.243317   89.599701
H   79.168983   95.090637   50.162590
H   34.724518    6.639288   43.726288
H   10.099359   44.757240   76.852303
H   79.095009   90.572014   18.101524
H   72.771927   42.654484   70.089951
H   11.772615   46.679371   40.236038
H   44.375523   12.770947   42.495735
H   19.135294   21.775372    9.848364
H   90.521355   79.684143   83.235672
H   21.999802   94.274712   33.630829
H   20.088964   78.514267   22.977966
H   35.691654   66.700783   70.004326
H   97.201508   38.752144   53.161720
H    5.435680   32.045662   42.660728
H   99.143440   28.083862   50.770988
H   68.393257   21.275345   55.052116
H   15.854241   23.606234   18.930784
H   27.564022   86.297707   47.705700
H   43.406494   49.839397   57.582760
H   28.331615   69.877159   94.395401
H   16.287750   65.563057   77.216301
H    1.209873   73.267281   54.073978
H   86.863762   34.208321   26.196890
H   15.530505   66.486298   37.444252
H   47.558426   21.117384   29.423691
H   13.458023   12.243335   98.722229
H   71.591179   72.565971   85.271202
H   41.338490   52.606190   31.878607
H   56.266010    0.510710   99.391388
H   79.586296   91.205246   24.608160
H   36.334438   38.329273   48.833336
H   43.506626   21.565008   58.667713
H   29.334124   17.527931   41.369637
H   19.209490   24.896301   73.947914
H   65.156403   99.076668   53.791584
H    1.113109    2.161701    4.631918
H   94.189346   12.008570   75.673706
H   27.822899   75.177315    3.351320
H   88.976746   29.856987    0.727189
H   29.553116   59.810394   73.252548
H   26.156006   66.066864   49.445274
H   91.114578   55.410332   75.567108
H   81.236145   23.310043   72.823120
H    8.011448   73.193581   99.393166
H   77.236702   44.503479   13.618856
H   52.089653   21.069405   41.939056
H   70.752449   17.516041   75.631508
H   47.613426   65.577362   91.105209
H   45.965584   46.018661   90.009880
H   81.722801   14.003212   28.998623
H   40.474495   73.192528    0.683545
H    6.217963   61.520496   56.174686
H   32.904942   34.997963   93.082649
H   74.521133   93.674263   48.979832
H   19.229584   17.864939   73.610985
H   86.182297   29.352293   39.150074
H   37.432095   39.489784   62.419262
H   12.169780   83.381462   99.846130
H   55.377274   18.157375   41.943348
H   85.422966   52.043797   23.241333
H   75.102646   81.832741   78.018066
H   20.627300   34.433697    9.753168
H   78.688911   47.479874   45.136887
H   49.305477   15.569564   77.331940
H   84.427704   54.776096   17.943336
H   28.081526   17.733063   99.477058
H   39.831173   27.346214   76.365837
H    0.415004   67.144264   47.289700
H   63.971985   65.422920   90.562965
H   66.017769   66.444298   24.126205
H   22.306259   88.794571   42.015240
H   44.402775    0.322914   43.978588
H   15.133890   32.959984   43.012398
H   17.236496   42.552322   57.441521
H   95.360878   43.440338   60.394993
H   47.982121    5.121060   27.529606
H   35.054367   76.065788   41.726692
H   23.073389   96.259758    8.548435
H    8.693645   20.477844   48.067642
H   84.988579   38.996975    3.337383
H   70.168961   65.913414   49.721664
