100
TIME:    5.737, STEP:  5737
H   29.352118   95.910118   93.893631
H   42.032570   15.742599   39.841778
H   78.374802   86.647079   56.002361
H   82.439545   96.285004   25.697994
H   43.785263   32.603271   10.152077
H   39.056461   94.992775   46.900959
H   52.293079   48.728123   39.093952
H   68.969406   84.925308   81.441780
H   12.601524   34.704315   38.963219
H   18.063795   98.758186   32.344486
H   66.613266   97.083405   87.132515
H   36.876114   11.256670   84.563423
H   77.977066   14.662624   54.964531
H   71.018974   87.392830   93.827675
H   50.281822   57.575424   75.001038
H   70.851395    9.950078   56.820038
H   62.771706   61.427349   95.650085
H   23.749800   15.675678    0.652317
H   34.623539   19.026766   65.607803
H   37.951736   83.981239    6.934214
H   23.834999   85.080811    1.532708
H   12.392120   51.699936   30.719711
H    9.145833   47.963570   68.207977
H   86.008125    5.459445   80.994110
H   24.395863   31.187057   78.908913
H   20.393839   57.060570   50.935524
H   67.371933    3.995753   13.796574
H   48.469982   24.223457   56.409576
H   35.916756   69.597534   85.981567
H   20.975224   48.849083   39.463242
H   41.842682   36.503536   55.485756
H   27.994785   94.006088   68.161232
H   74.464470   48.735832   14.631223
H   20.503532   47.960869   30.059694
H   38.165771   25.246683   74.070694
H   71.345261   34.775566    1.389410
H   30.052284   94.433228   60.518475
H   26.872112   53.965809   27.285854
H    2.910253   56.417046   88.354637
H   22.832502   75.105080   89.409691
H   43.167969   53.031639   77.506935
H   16.731045   64.100784   72.842247
H   60.656979   97.903030   15.863906
H   13.017599    8.938314   41.669304
H   59.012577    5.540616   47.041241
H    4.070315   72.341324    6.468379
H   86.554977   36.836136   80.535316
H   56.545803   54.459213   23.550940
H   32.728081   57.310555   15.622239
H   46.199955   18.052160   82.410690
H   43.107662   15.773130   13.904288
H   83.940331   31.388382   97.437569
H   27.874554   55.273804   69.674248
H   43.834763   13.596671   84.974876
H   84.006218   61.369152   49.144680
H    0.741161    6.498956   97.325775
H   59.951363   24.008278    1.623800
H   98.867096   35.099144   65.783432
H   42.741302   81.171181   71.051430
H   80.435638   68.753967    0.436666
H   21.595032   11.775419   67.093163
H   95.300575   74.542892   35.773361
H   63.546741   15.800293   40.067139
H   36.988991   73.014999   71.382370
H   60.035965    2.639031   29.831244
H   48.912926   57.069786   85.399544
H   27.278584   46.704502   44.045120
H   84.071831   45.642857   40.464375
H   42.834110   37.562096    0.416941
H   46.615395   36.696472   89.652649
H   39.857704    5.055159   93.328346
H    0.925795   61.125107   76.658798
H   32.928757   34.530495   14.650101
H    3.917803   86.324120   62.280388
H   38.774982   36.819660   36.302017
H   61.287689   75.261528    9.902657
H   87.837425   29.300722   92.509850
H    1.515022   75.592842   31.272783
H   36.622646   36.667347   81.690804
H   18.177074   96.497627   26.673382
H   23.136141   88.633560   22.875937
H   71.788818   81.676102    7.040605
H   80.753181    3.062048   76.306915
H   44.845909    3.086301   39.430462
H   72.984749   90.031975   91.614670
H   19.252743   19.782902   40.177994
H   50.315987   86.226143   97.105728
H   48.295738   45.993397   36.093987
H   74.742050   74.745369   81.269539
H   59.111637   73.241257   29.301813
H   58.804344   83.212723   54.616741
H    2.778802   26.956282   42.838593
H   53.206192   99.656471   62.655598
H    1.727066   61.230297   13.636071
H   57.402550   35.844303   47.915714
H   67.774261   69.183807   71.125366
H    7.226559   96.915550    7.249068
H   27.203592   70.323822   63.708817
H   35.415497   61.580250   64.504326
H   95.558945   31.414490   45.077663
