100
TIME:    8.618, STEP:  8618
H   34.521477   31.709265   91.255997
H   62.468155   71.861954   21.497070
H   27.906420   93.917831   22.177895
H   82.923111   77.588493   67.782173
H   17.974436   63.527958   32.034912
H   94.375244   91.871574   32.215080
H    1.301541   43.267120   64.391991
H   42.528488   34.168324   16.917130
H   41.780983   57.707123   57.615910
H   39.371864   40.126713   45.150276
H   98.629669   13.006358    9.620489
H   26.915970   55.666363   79.490608
H   94.208298   40.350533   68.673325
H   28.369078   78.512794   13.073116
H   85.280220    0.230595   36.460945
H   55.012390   57.967186   17.671490
H   31.098824   51.983555   57.918892
H   85.352921   75.487144    0.785117
H   79.492889   39.889629   17.392094
H   60.329151   22.801275    3.086122
H   52.872383   98.267487   23.337294
H   88.596397   55.524506   85.375992
H   70.679482   24.536089   85.778702
H   18.321089   39.924530   67.027512
H   21.355209    2.708900    0.185740
H    6.972347   72.044846   79.890320
H   18.938803   84.237259   70.964401
H    5.380369   58.698811   51.639076
H   98.560570   30.984049   49.794151
H   31.444656   77.543808   68.494904
H   55.229633   94.848763   27.550346
H    9.903067   14.407082    1.452665
H   77.397720   37.948036   74.174454
H   42.233566   83.934479    8.689245
H   66.477486    7.166446   49.379421
H   21.785410   60.430771   92.332832
H    6.377699   88.924568   87.530113
H    7.795179    1.236571   30.589523
H   81.303886   93.646935    9.164345
H   51.473686    5.394591   16.080492
H   46.271927   51.885170   45.380825
H   73.935760   75.398651   19.925415
H   85.453705   15.184605   23.960583
H   29.055790   57.299362   23.357121
H    9.108490   91.874901   93.576347
H   66.881065   27.286903   18.172880
H    9.068688   93.513741    8.191364
H   56.713619   84.132599    1.810543
H   16.944199   18.707794    0.697300
H    6.675665   61.904911   80.962456
H   42.909840   37.631569   44.274872
H   23.963888   64.053497    8.318030
H   87.630257   71.978821    2.352034
H   77.117065   66.598038   12.105060
H   54.617073   13.844892   73.644043
H    4.329468    3.468424   99.249725
H   42.595154   40.877846   75.630928
H   84.341980   63.023506   91.574364
H   69.959984    2.909158   49.882477
H   90.320045   90.195908   18.494164
H    3.330230   77.793579   42.468517
H   93.048241   47.726944    5.416691
H   59.137791   19.206102   42.508331
H   34.822201   88.708923   93.159378
H   74.387589   72.539398   98.125320
H   71.931587   13.846938   55.747776
H   96.129776   46.307980   83.138779
H   85.061447   10.409703   78.192841
H   86.421875   30.551811   19.726242
H    5.051970   81.503799   83.564972
H   48.368916    9.031047   58.775337
H   63.594826   65.448631   87.741867
H   45.081772   92.029839   40.785015
H   40.492123    3.987175   91.101784
H   77.609100   41.004765   54.724171
H   29.391932   59.907097   16.047632
H   49.481277   79.890869   43.584381
H   36.865757   87.215294   90.386292
H   74.776711   28.204937   13.833113
H   76.890709   39.556572   78.472862
H   79.526955   18.439524   95.069031
H   87.983994    0.359850   66.021095
H   62.983299   51.241611   50.678463
H   43.053673   49.620338   76.295708
H   32.705856    9.813757   12.335106
H   52.950481   25.606575   40.243378
H   42.731586   76.753349   34.482765
H   94.630180   15.452885    6.222615
H   34.533939   14.336077   57.706673
H    4.391364   54.709961   32.290184
H   76.706749   38.777355   15.458518
H   15.943628   43.635071   97.736870
H   37.883823   86.099174   85.447754
H   80.161484   36.016956    7.897112
H    7.589859   77.782028   14.119154
H    5.733081   55.416321   22.318245
H   78.546165   62.248070   41.559837
H   21.642580   12.879308    5.873720
H   98.171562   74.016808   23.189404
H   74.507645   57.479710   67.541672
