200
TIME:    0.890, STEP:   890
H   29.444159   60.317783   26.454174
H   33.757385   42.367416   16.285061
H    4.514230   97.588547   77.364189
H   39.752640   84.571114   27.502357
H    8.308927    0.203404   44.313065
H   68.472961   35.172974   46.310379
H   12.776565   54.842934   62.232616
H   17.454763   16.953453    2.000397
H   13.825056   77.761581   31.862663
H   87.979965   65.792915   70.433876
H   34.849461    8.479269   13.502281
H   33.465637   59.372276   43.713669
H   27.127621    8.580866   34.651360
H   73.681664   55.949322   73.587517
H   88.240128   76.948326   41.379280
H   10.354307   99.184799   40.301132
H   14.788424   38.160324   83.877396
H   21.127834   14.415221   31.948298
H   86.652084    6.169951   52.052429
H   92.124199   70.778282   12.273410
H   65.885750    9.205410   96.061356
H   75.558357   73.659492   45.526245
H   75.540718   57.815430   33.539818
H   22.375950   93.985313   89.547890
H   31.498718   38.845978   22.216610
H   18.123030   91.183258   85.488579
H   11.483506   71.839211   75.216354
H    9.428090   96.943321    2.441595
H   38.445339   36.772652   34.532249
H   63.676605   38.177448   76.141312
H   12.512865   78.605324   16.989510
H   20.106022   78.740707    9.606651
H   11.417809   22.971769   81.118683
H   74.913948   64.287071   49.651611
H   16.795053   62.942589   29.274176
H   11.824411   35.102341   86.925255
H    4.920434   60.399689   90.834694
H    0.763517   61.569164   85.942764
H   29.013626   23.125523   58.879990
H   83.849152   37.015530   38.305756
H   80.697716   74.859375   23.099197
H   45.692520   29.476553   20.556835
H   64.998367   72.850060   74.464256
H   35.833206   94.803566   41.994854
H   50.986183   96.126617   67.820488
H   31.912706   96.922447   49.757084
H   92.223145   94.366608   10.429832
H   74.291313   65.540688   24.280350
H   12.218177    4.085867   61.634968
H   38.856709   20.734816   78.213852
H   62.745743   62.268959    2.108918
H   96.291283   46.885723   77.516487
H   69.709190   75.834160   16.421192
H   12.732407   95.900589   91.328789
H   49.685776   61.929138   69.751701
H   96.973564   56.335915   99.932709
H    3.575504   19.205177   42.682087
H   74.510117   73.689789   93.570885
H   14.465513   87.033920   22.847202
H   28.069759   92.339272   54.978317
H   48.314377    2.694747   23.245033
H    1.618875   17.964685   54.049431
H   89.354645   38.671066   62.955631
H   39.875542   66.079689   18.180237
H   81.797211   85.769165   44.509754
H   13.241609   41.813652   44.546951
H   61.895363    9.451001   99.264381
H   93.701439   92.927742    0.140446
H   39.642670   14.637065   53.752647
H   41.495319   52.959064   50.947880
H   58.180016   87.834427   90.667969
H   13.872391    6.736784   40.214848
H   98.123672   36.900433   77.730240
H   29.041750   94.677345   79.496132
H   87.059769   11.393565   37.049744
H   69.743279   96.129082   58.629997
H   92.680237   54.148155   62.951107
H    2.480306   17.806086   25.740822
H   16.476004   58.647667   20.529871
H   58.480457   87.041840   63.435822
H   70.955605   19.116388   91.483459
H   55.218037   56.900127   67.762932
H    8.463750   20.796255   71.261543
H    3.477672   83.114326   15.036300
H   15.761589    6.197369   39.361595
H   42.979210   63.031860   14.251980
H   64.987404    4.138565    3.261523
H   69.926064   94.352478   35.958572
H   85.581314   73.639252   79.511597
H   20.188477   15.182873   47.714474
H   13.995785   40.504025   77.863327
H   79.527763   94.238434   12.550724
H   78.138702    9.531300   77.217484
H   30.880671   71.081215   86.952492
H   41.594612   48.133705   95.011543
H   42.354042   42.241959   98.500114
H   88.122887   91.796074   26.323097
H   96.184578   39.771015   56.230598
H   22.289360   63.266724   55.184753
H   78.506233    8.489010   27.409098
H   38.866970   98.398193   99.547401
H   14.741862   86.490479   62.279167
H   36.653290   13.414929   39.585651
H   53.108757   69.139587   15.975303
H   24.477095   18.930672   46.161259
H   13.156630   94.949249   13.458508
H   89.291283   36.935108   51.751392
H   60.920773   59.231079   93.607613
H   89.315346   31.884811   30.563404
H   25.247049   18.997622    8.718531
H   55.746521   90.418358    1.253173
H   12.092897   79.690613   97.915108
H   45.804634   87.817459   79.796959
H   61.022331    5.384210   58.193062
H   42.159126    9.035142    3.981519
H   87.511925   86.783363    8.257826
H    5.850080   17.595469   91.757614
H   37.473309   58.990154   20.985649
H   43.546951   82.117371   51.415539
H   87.936180   59.647884   73.591293
H   47.338631   26.078815   66.220467
H   90.243820   12.082005   67.307571
H   47.907173   94.408279   43.312122
H   94.500961   43.928848   89.400444
H   57.466759   92.858986   71.315407
H   71.535324   80.136765   12.981380
H   79.229866   52.224899   45.951767
H   61.210915   92.667931   40.492306
H    0.466774   28.955189   70.077415
H   99.250397   21.068501   77.575294
H   74.847588   61.977081   28.251507
H   56.750740   92.498215   24.655582
H   90.315254   14.218397    2.211014
H   69.048386   29.668217   57.706722
H   36.536488   89.617065   26.548187
H   45.045837    0.792636   74.105568
H   69.968842   88.220863   87.696831
H   96.762627   43.925808   72.928062
H   63.303131   53.423676   71.396355
H   43.800041   77.916435   77.396423
H   82.797302   43.953789   35.906769
H   27.315243   60.760468   61.399441
H   34.110306   68.723854   77.460037
H   27.928688    2.998731   88.895607
H   70.854996   48.209839   70.323273
H   69.756844   73.173843   98.715202
H   60.104485   93.931267   42.627773
H   24.903801   49.223213   65.095726
H   82.561981   37.653641   91.482742
H   30.182171   95.771278   65.672516
H   53.310310   72.348923   46.437160
H   61.149239   89.123604   27.782799
H    6.371835    7.534008   80.647400
H   27.092175   16.062693   59.889339
H   39.387493   71.046005   72.511940
H   82.797981   45.140614   74.059799
H   66.115158   80.377441   88.452316
H   55.287361   26.230896   24.952309
H   82.632301   99.284988   78.498894
H   56.392269   30.422441    3.185128
H   60.340797   58.002144   66.133400
H   13.084997   19.687828   29.912910
H   93.198631    6.230023   36.961781
H   35.133896   39.274700   43.389961
H   52.730507   44.143990   16.211233
H   23.112598   43.757343   58.748623
H   63.707130   87.053658   59.112377
H   24.200031   60.506195   74.891068
H    2.905734   26.056391   35.322090
H   56.135849    5.554538   83.083710
H   66.947388   13.363826   35.921524
H   23.707647   41.303848   59.454155
H   50.231880   49.523266   72.134842
H   63.221695   58.991653   89.319916
H   41.226990   90.146866   68.668449
H   20.971977   51.176605   23.922646
H   28.740307   73.227341   14.097481
H    7.490873    9.820747   73.191666
H   58.977894    6.268767   61.533337
H   55.381195   61.427605   95.554390
H   69.550674    8.482869   26.606865
H   32.338272   30.899502   93.345490
H   35.705921   89.480637   18.944916
H   65.636116   26.423069    1.103070
H   93.928650   60.141861   75.718918
H   12.867811   41.708542   87.207375
H   53.985352   93.391045   13.667612
H   59.193558   94.757515   48.271133
H   87.794044   64.071938   73.972153
H   61.433601   54.737469   73.915298
H   78.870529    9.519180   74.659737
H   42.324356    2.593648   16.345160
H   18.538483   32.987839   72.697380
H   23.748114   89.472214   46.412762
H   62.588387   25.222538   19.690067
H   76.915054   11.978418   20.661057
H   13.781901    3.283573   25.405867
H   10.018818   84.487709   28.635376
H    3.245425   13.430647   48.946785
H    1.228264   12.970842   88.718262
