100
TIME:    5.909, STEP:  5909
H   17.720938   80.136803   93.736160
H   37.282204   25.063543   50.687572
H   81.332626   99.021652   53.982800
H   82.468414   89.198822   16.270092
H   42.244675   46.389832    5.488647
H   36.388645   94.806435   63.935352
H   43.279194   60.342899   52.544575
H   55.450546   99.806290   65.650093
H    8.373436   18.167267   28.136030
H   13.365263    1.227953   39.078983
H   50.614243    4.004111   70.563972
H   30.310898   19.878010   72.320076
H   67.001358    4.261028   37.873711
H   62.502434   86.862679    6.916783
H   52.373558   42.211533   66.733826
H   63.935806   94.906166   42.542694
H   48.940529   72.804314   11.307928
H   27.428053    7.306767   94.689491
H   37.301853   26.242861   74.670242
H   33.318161   80.327919   18.644770
H   13.628273   67.958496   96.863930
H   28.881927   51.928268   16.072311
H    6.849140   46.564705   63.287018
H   70.027473    7.517062   68.220612
H   18.244663   17.546158   80.179176
H   19.609766   51.975578   34.761971
H   52.539803   96.846085   17.209539
H   33.957745   32.251839   62.095581
H   39.656685   85.202881   77.850830
H   27.569965   44.592125   53.136948
H   48.612610   51.926479   41.877663
H   38.855015   89.253098   52.238319
H   86.579216   36.151299   30.126341
H   27.771461   32.198051   22.814074
H   33.890442   12.244291   84.545120
H   86.297104   48.247185    0.848479
H   46.548729   88.134399   74.071449
H   19.763515   50.817707   39.422909
H   95.650421   52.669243   71.686363
H    6.632048   59.003292    2.941820
H   31.412815   58.932854   81.559181
H    2.235565   64.775284   81.623863
H   62.138515   98.934464   28.287685
H    2.035076   11.825277   58.485863
H   44.093540   98.754471   61.759502
H    1.850722   75.621964    7.167155
H   87.898727   46.189896   82.186134
H   56.554989   56.230759   34.193333
H   37.755333   43.066017    8.760781
H   49.807346   20.670111   70.379929
H   43.095852   99.167282   15.717498
H   92.299400   15.428070   86.146919
H   31.442577   56.271118   59.684788
H   39.852066   10.790084   92.564964
H   70.311516   76.441956   50.607845
H    0.955407    6.318028   91.470490
H   70.855721   19.045326   17.982658
H   86.059479   18.855509   61.353256
H   56.306091   88.438454   57.847511
H   69.084625   81.973633   95.544579
H   32.445393    3.776892   53.682919
H   89.195961   72.941940   27.990372
H   75.223244    4.063148   28.272583
H   48.800606   73.951950   66.713364
H   66.863083   88.902176   45.848728
H   38.346642   48.519127   95.569527
H   13.478245   52.650333   52.349075
H   72.190666   55.479527   48.686970
H   51.407078   25.203270   89.630157
H   50.099434   45.348175   89.290466
H   34.396095   93.352325   91.265480
H   86.742996   55.416794   89.251205
H   21.713615   26.023140   10.239609
H    0.131864   75.437645   52.060539
H   47.067127   37.065052   49.340591
H   65.353935   86.284477   98.329315
H    3.453437   14.392839   95.551659
H    9.595897   64.346809   40.772202
H   44.870174   36.162128   83.609322
H    9.742306   87.128120   11.855481
H   26.502077   90.412979   33.155567
H   84.698792   82.791519   92.652794
H   91.631783    5.938322   92.686493
H   56.678520   17.804932   23.721447
H   64.609932   79.274101   74.941147
H   15.293667   26.100758   52.122147
H   61.803474   73.720345    5.307401
H   51.061974   32.229145   34.310631
H   78.311386   65.168526   79.862801
H   43.903904   66.165573   35.450020
H   65.843285   92.500870   58.249065
H   15.505060   39.892242   46.115295
H   64.231766    4.817434   75.956619
H   18.349846   71.665352   25.233721
H   54.428978   20.437107   51.868229
H   81.980743   62.391571   62.241394
H   93.574028    6.786114   97.357040
H   26.871592   78.835114   60.256271
H   27.221771   62.321674   50.097115
H    6.242729   27.000717   28.507809
