100
TIME:    9.010, STEP:  9010
H    8.012839   95.761848   90.897110
H   51.641739   93.102066   46.214756
H   34.644520   22.119198   17.576668
H   82.988907   61.438591   46.294357
H   14.461832   94.948486   21.407375
H   88.298096   91.446892   71.037109
H   80.755394   69.737358   95.046898
H   11.718063   68.080490   80.925697
H   32.144875   20.017559   32.939457
H   28.664610   45.755253   60.498665
H   62.166779   28.778076   71.859947
H   11.953384   75.315407   51.587166
H   69.211838   16.625130   29.718716
H    8.960511   77.304543   42.905575
H   90.041451   65.215218   17.610420
H   39.251282   23.681541   85.131897
H   99.576302   77.911736   93.604195
H   93.737808   56.412315   87.195389
H   85.599945   56.335613   38.043034
H   49.768909   14.476599   29.775263
H   29.610542   59.244171   12.697798
H   26.177820   56.044891   51.993546
H   65.445717   21.349474   74.563492
H   81.899292   44.613983   37.913136
H    7.335734   71.623062    3.079392
H    5.123333   60.488693   43.001041
H   85.136803   67.943802   78.740280
H   72.303345   76.996048   64.597740
H    7.084521   66.549675   31.263695
H   46.475975   67.841904   99.658234
H   70.657478   30.000172   96.536575
H   34.654102    3.577080   65.163246
H    5.008476    9.268192    9.488912
H   58.796188   48.009918   92.175117
H   56.721748   77.486580   73.229279
H   55.861256   91.133881   91.100655
H   43.975075   74.569099   18.417929
H   91.592491   94.064400   58.250717
H   64.759209   85.105431   71.176529
H   14.552507   68.698097   46.923042
H   19.481733   65.334747   54.616177
H   40.900238   76.935883   39.937244
H   88.827240   17.536549   52.273754
H    4.026492   63.881943   61.683231
H   75.104462   76.412865   27.121767
H   61.822052   34.762768   19.765440
H   12.133431   14.832682   11.955936
H   56.737545   88.170074   26.064884
H   28.401657   86.242165   85.061707
H   14.903891   67.873344   53.554333
H   42.882923   99.785698   48.408051
H   43.015423   27.677521   82.585518
H   95.759041   74.251770   79.586502
H   68.037231   60.202095   29.401905
H   23.405479   48.198578   76.975708
H    4.817703    3.056078   85.905121
H   67.445480   29.566933   12.913518
H   55.152527   26.004099   81.477684
H    0.878038   19.473391   19.787443
H   64.450294   20.326382    7.344749
H   28.058638   59.562862   11.906221
H   79.135399   44.078262   87.681053
H   85.749786   92.456444   15.627716
H   61.741695   90.844299   82.518387
H   89.945328   41.230335   34.631138
H   47.850288   94.359917   78.925880
H   64.679337   59.858944    2.064211
H   57.983444   32.829597   96.932709
H    5.958041    2.385196   95.140564
H   13.013412    1.194580   82.733551
H   35.918537   82.359108   54.073921
H   31.315924   52.433006   16.475544
H   19.523056   72.637993   30.733196
H   31.863888   79.176430   67.810036
H   96.492523   41.581974   84.445969
H   38.660179   85.029655   89.670731
H   85.082840   45.962521   50.537811
H   55.279636   61.584801   12.037597
H   93.576393   27.053509   18.208170
H   57.666344   18.201845   44.701622
H   87.201149   22.494944   18.498833
H   17.399555    2.904581   33.227638
H   87.776512   57.797276   88.009727
H   70.021690   83.164284   40.492741
H   13.619064   85.290756   74.335236
H   43.927471   40.006241   67.464935
H   68.912376   48.251762   53.174782
H    0.934553   84.085732    2.158282
H   42.668705   92.510307   54.500618
H   69.734604   38.580994   46.301720
H   92.748985   59.942699   23.736839
H   44.947659   73.117615    5.205779
H   63.011875   97.858696   15.761714
H   18.047171   59.799183   34.327984
H    0.811743   42.669125   23.125872
H   38.110672   39.936340    2.070538
H   47.430687   84.744286   19.014908
H   20.885927   32.275616   98.003258
H   79.497490   75.709557   90.355156
H   98.858109   47.421909   29.778095
