200
TIME:    0.322, STEP:   322
H   11.990878   62.202854   16.741726
H   28.695154   34.075272   93.226051
H   16.418983   72.727280   49.387138
H   20.606609   77.932198   42.355415
H   14.339528   85.807526   52.479538
H   86.950989   50.589386   63.122177
H    4.547256   55.245949   51.238537
H    4.726201   92.427338   22.161678
H   90.758598   86.276901   45.719028
H    7.974637   73.750267   92.838051
H   15.051855   96.345894   95.552948
H   31.116882   44.211540   16.649435
H   13.186763   89.729286   57.930901
H    0.527717   53.552898   46.217159
H   15.662858   72.575829   42.776833
H   26.910244   22.587757   52.554092
H   88.064926   11.558964   11.450821
H   34.614967   87.109009   42.060505
H   67.753708   26.733238   43.690948
H   90.317131   78.578575   34.291996
H   59.069160   80.851624   22.083683
H   88.203499   51.948677   67.414734
H   92.549690   61.945251   47.168663
H   10.345082   88.806786   91.328957
H    6.810603   16.001951   42.484371
H   18.593214   65.975311    4.248281
H    0.483619   60.442112   52.378830
H   96.392120   73.512108    0.947034
H   14.522275   54.037300   37.858208
H   89.343933   22.961020   95.789383
H   13.254435   54.875095   16.295067
H   30.434910   65.428207   95.621971
H   25.141991   10.749994   74.180756
H   93.712654   63.667381   39.723572
H   44.053349   86.412704   33.595356
H   30.382706   48.052315   80.416771
H   88.618011   72.659149   86.570534
H   28.858883   46.876446   11.480564
H   50.035416   43.464314   46.254349
H   89.296356   39.351284   60.493256
H   80.528709    1.393321    4.246038
H   17.420794   41.387398   37.399704
H   75.225418   85.898216   53.373127
H   37.098587   67.216530   21.681040
H   31.578646   78.796967   47.323051
H   39.905853   11.704462   43.579685
H   81.519409   22.194824   97.977013
H   88.119499   65.549355   44.699783
H   90.251587   25.640377   61.225452
H   59.182972   18.171553    2.243222
H   76.257584   69.458229   24.618999
H   18.003496   37.109356   65.304695
H   54.387985   92.075569    9.000993
H   21.186184   83.914139   82.917473
H   73.728012   74.561279   88.121391
H    4.254473   70.329964   81.333344
H    5.196466   17.055763   48.774982
H   68.304550   60.485630    3.823442
H   26.450880   76.061508    9.109748
H   41.206753   95.528725   65.478378
H   50.153946   13.776564   39.840729
H   91.410004   16.619135   49.694607
H   73.706390   26.905157   82.118469
H   26.112820   65.269325    5.498314
H   72.666534   77.301514   21.282717
H   35.523125   19.746889   34.337234
H   83.112160   21.432331   87.529274
H   96.882225   91.636360   88.895012
H   19.439238    6.961360   60.941917
H   44.764942   43.059193   50.978214
H   58.429192   78.010391   75.474731
H   29.835907   21.666449   44.190830
H   80.096329   27.080730   96.749954
H   10.536798    7.162290   62.959644
H   80.143509    2.198969   63.757080
H   55.386406   16.181591   62.341637
H   95.080994   33.002861   70.985695
H   23.518059    7.463114   45.163551
H   12.153980   33.346775   33.122311
H   67.040512   90.209625   90.372833
H   46.848370   28.716166   99.916443
H   30.242008   67.115685   85.322258
H   10.679791   14.565772   87.880501
H   22.000051   64.540962   96.524139
H   35.988182    0.190954   55.458366
H   26.977436   82.905273   26.075844
H   39.530365    2.954979    1.959310
H   74.649574   15.492447   14.535050
H   68.195999   72.254616   77.464745
H   23.033417   89.722618   53.963375
H   37.805405   35.600674   80.389755
H   83.484245   89.254913    0.157087
H   51.155056   15.937290   93.394424
H   56.350842   91.487648   71.356239
H   27.202709   55.816994   71.354988
H   65.876259   29.542648   25.206202
H   80.417931   11.442968    1.860768
H    4.640463   29.712921   49.369953
H   35.159843   68.956604   53.171844
H   68.630196   99.259933   27.270426
H   13.524739   82.693604   72.801064
H   93.621529   77.897156   65.412285
H   24.879179   34.173279   31.648804
H   25.816153   68.090881   93.418671
H   25.230040   26.395119   27.746067
H   90.669395   22.758184   40.051712
H   69.542717   31.114962   55.877609
H   64.268227   37.422760   15.570845
H   74.880470   39.054581    3.097706
H    7.000865   26.917086    5.938593
H   48.273407   95.354210    0.853544
H   89.286545   65.407410   91.445198
H   55.669838   81.226212   92.151756
H   62.946404   17.629528   72.839417
H   61.113838   85.383148   23.897511
H   10.692025    3.398414   82.633621
H   29.203526    9.597352   85.136032
H   40.355083   31.032604   32.339409
H   21.976473   60.792240   79.486954
H   72.946617   48.311459   52.401680
H   41.410408   22.304340   84.832832
H   14.750957   25.537510   50.600204
H   34.213326   18.364193   26.461679
H    2.869161   64.367821   14.274319
H   74.462730    6.921813   90.101112
H   50.726528   64.596100   23.948122
H   93.348396   49.572800   67.887924
H   73.635048   88.213097   35.695126
H   93.476830   49.515461   83.021568
H   71.719696   23.760685   67.898598
H   51.919060   82.257843    6.545025
H   78.552559   86.864670   11.260747
H   92.169991   86.584251   97.985123
H   96.899765   15.105398   50.716515
H    8.476954   99.887451   52.648834
H   60.174072    1.521611   82.473549
H   69.028473   86.773476   59.420769
H   91.917778   61.660641   81.902733
H   48.456573   45.480377   71.530693
H   43.492363    5.157109   93.179016
H   54.677242   60.657249   17.558746
H   53.463364   43.502319   48.158443
H   52.369492   58.270275   96.618423
H   53.955666   23.559340   79.483253
H   44.156322   67.047546   51.749912
H   48.944626   63.388672   25.918900
H   46.670647   96.418694   46.694759
H   40.413383   70.366341   68.354515
H   67.377411   61.368698   97.129288
H   12.075859   89.570045   86.928314
H   73.329903   62.702557   50.725155
H   37.239174    4.840808   45.582634
H   79.985092   28.772472    0.585875
H   12.077553    3.024933   73.926170
H   16.864147   56.044590   62.236847
H   65.936348   43.732227   56.583733
H   60.169598   63.342548   81.726730
H   47.211891   35.344238   11.645226
H    8.628845    1.425359   99.564018
H   62.760342   53.598053   81.387894
H   54.761421   81.078011   81.235634
H   39.754101   22.631355   34.833595
H   68.749046   30.994850   37.197956
H   14.284569   22.588573   67.690369
H   58.169044   24.870764   10.630253
H   13.326480   61.830189   61.853573
H   73.487831   96.240669   53.090984
H   23.703846   34.663391   51.403522
H   95.187172   27.903543   36.663307
H   30.215042    9.840907   89.479950
H   77.798462    6.608989   35.969193
H   43.330177   62.401474   57.709923
H   39.257301   73.930801   88.116776
H   70.215843   72.578613   76.143326
H   67.626648   94.419693   95.375786
H    3.439083   48.103783   23.365416
H   34.575359   55.482712   90.338188
H    2.456746    9.279060   65.928726
H   73.504524   19.473330   68.175781
H   82.399849   55.334709   87.541756
H   79.920731   88.127907   39.812752
H   20.881624   30.206142   72.609711
H   61.860035   90.080673    7.692980
H   53.266441   25.372196   80.206978
H   86.583374   84.777786   78.059006
H    0.977080   36.915695   84.364601
H   34.207275    3.119967    1.082025
H   86.481583   70.697945   28.395752
H    4.243717   61.539074   67.480576
H   51.104713   57.827251   66.739029
H   51.737530   28.311386   78.715889
H   46.980698   87.157623   23.579931
H    5.921896   19.474834   59.684608
H   33.670918   66.803696   34.965832
H   82.080612   50.592701   21.548054
H   75.528336   10.584658   28.442932
H   10.006343   87.795341    6.234479
H   26.526384   95.776466   44.654144
H   10.819821   11.841337   74.349739
H    7.152488   32.214718   96.609558
