100
TIME:    6.207, STEP:  6207
H   97.568680   52.808617   93.463333
H   29.052326   41.212635   69.477882
H   86.457230   20.460258   50.483791
H   82.518433   76.921600   99.935181
H   39.575516   70.275848   97.408859
H   31.766499   94.483589   93.446159
H   27.661797   80.464317   75.848564
H   32.028336   25.586491   38.287937
H    1.047979   89.515564    9.377826
H    5.224783    5.507089   50.746891
H   22.895004   15.994390   41.859764
H   18.936279   34.815296   51.107765
H   47.985306   86.240517    8.262871
H   47.747032   85.944160   29.595539
H   55.996223   15.592987   52.407154
H   51.954147   68.842079   17.805714
H   24.977211   92.516075   38.436043
H   33.800838   92.806595   84.358437
H   41.942188   38.745163   90.371445
H   25.290222   73.998329   38.934013
H   95.944550   38.291119   88.774605
H   57.451477   52.323868   90.694916
H    2.870086   44.141090   54.761169
H   42.338284   11.082003   46.087940
H    7.586904   93.913086   82.379982
H   18.251314   43.165535    6.739336
H   26.841988   84.459732   23.123068
H    8.813563   46.161476   71.945084
H   46.136330   12.239779   63.763855
H   38.996433   37.216698   76.827438
H   60.341904   78.648872   18.300850
H   57.670994   81.018265   24.650948
H    7.569328   14.348783   56.972534
H   40.362816    4.888253   10.260614
H   26.481186   89.713081    2.688792
H   12.201693   71.587547   99.911354
H   75.130531   77.221313   97.552773
H    7.446901   45.363438   60.451061
H   83.073090   46.175957   42.807610
H   78.562973   31.104481   26.387903
H   11.047405   69.158195   88.579933
H   77.121780   65.943893   96.838524
H   64.704742    0.721743   49.811668
H   83.005585   16.827108   87.623375
H   18.244835   86.995621   87.259750
H   98.004509   81.305862    8.377825
H   90.226852   62.395828   85.046272
H   56.570904   59.300064   52.631901
H   46.465340   18.386528   96.873398
H   56.058796   25.206240   49.538940
H   43.075390   70.397659   18.858471
H    6.781446   87.776321   66.585213
H   37.624386   57.999023   42.376179
H   32.951813    5.927508    5.714751
H   46.584648    2.556226   53.142864
H    1.326570    6.004561   81.325867
H   89.749001   10.446357   46.324852
H   63.869537   90.712700   53.677719
H   79.809402    1.029565   34.970955
H   49.420021    4.877913   87.068748
H   51.243183   89.917740   30.449413
H   78.619362   70.168198   14.505954
H   95.453377   83.728310    7.837830
H   69.264328   75.575272   58.622524
H   78.690140   65.102554   73.599800
H   20.040684   33.704613   13.190032
H   89.568924   62.951832   66.736160
H   51.605858   72.522133   62.933094
H   66.259895    3.790887   70.941498
H   56.135735   60.337753   88.662964
H   24.932690   73.076721   87.691444
H   62.170536   45.526810   11.068885
H    2.282710   11.283653    2.598201
H   93.570412   56.577091   34.354057
H   61.433750   37.490208   71.930679
H   72.397423    5.382773   78.276520
H   30.511257   88.568871    0.823571
H   23.596478   44.860168   57.230499
H   59.159496   35.286808   86.933266
H   95.128372   70.894905   86.182640
H   32.333755   93.495926   50.966633
H    7.065463   84.724045   67.725487
H   10.480737   10.921514   21.066444
H   77.180672   43.305809   96.504112
H   50.100075   60.635048   46.053299
H    8.434338   37.047333   72.816086
H   81.706215   52.053322   19.517202
H   55.854637    8.382906   31.220863
H   84.495468   48.576088   77.425545
H   17.556246   53.904667   46.101646
H   78.038658    8.592411   64.542282
H   37.554043   62.304993   51.792374
H   83.334213   13.759343   99.001419
H   47.149563   89.744698   45.327438
H   49.277092   93.743851   58.716190
H    6.594373   50.623627   46.849396
H   69.919914   23.886999   80.218948
H   26.296381   93.581421   54.274536
H   13.025784   63.606236   25.135704
H   24.752077   19.353600   99.799843
