100
TIME:    0.791, STEP:   791
H   63.830238   49.482552   98.421829
H   79.267113   47.632534   27.896208
H   93.354919   30.811249   14.052231
H   81.609375    0.059842   96.805290
H   88.086136   36.159660   44.257484
H   15.750500    0.352751   57.081646
H   11.514744   14.749043   52.310001
H   57.715256   57.032612   35.567177
H   34.183708   10.242012   50.297127
H   53.223778   27.742077   38.665344
H   26.678131   98.070312   63.555374
H   25.649784   63.339439   36.624306
H   92.947128   13.850945   46.509666
H   15.915932    2.638433   17.435101
H   90.122704   99.369446   12.749189
H   69.719711   42.550808   67.380356
H   60.471321   34.307083   45.373558
H   18.047401   56.234360   72.123825
H   57.581429   11.535533    5.036791
H   71.237740   88.947723   70.151649
H   17.337479   77.471161   35.774925
H   38.194141   45.143967   51.904011
H   75.183037   88.189064    9.718029
H   45.549072   46.168552   48.328835
H    1.293967   23.442257   42.398796
H   43.032040    4.040976   15.033019
H   93.869797    9.595431   15.662672
H   65.797691   93.360397   92.919479
H   28.370728   20.857679   19.781200
H   31.323030   71.262589   46.270535
H   47.217442   92.975822   46.818626
H   15.701218   30.657715   26.037224
H   26.074413   10.609171   69.056480
H   11.523671    1.232380   38.427040
H   61.110283   99.126472   72.894058
H   41.329712   46.622448   17.922613
H   55.665569   75.567726   70.793037
H   31.297264   44.476643   78.259636
H   15.159410   63.622475   66.314148
H   88.690025   38.132435    0.267888
H   81.185181   83.322166   60.979168
H   60.530602   47.359253   39.962559
H   18.054182   68.243332   58.606903
H   28.848211   26.027468   58.072639
H   88.042000    0.683418   23.795683
H   67.849098   78.074028   86.420204
H   44.432301   68.412170   34.382271
H   56.281658    3.527510   17.520491
H   88.152397   66.937607   12.920157
H   42.479588   42.788921   28.341309
H   43.484272   93.277260   61.757053
H   43.573494   90.340042   22.133911
H   25.287577   26.595215   56.931023
H   58.372303   94.297356   66.721207
H   77.788727   27.847773    7.118256
H   94.555954   11.700642   65.699295
H   46.396942   66.722984   31.218224
H   67.159119    2.187100   93.180374
H   52.660576   72.190109   50.758511
H    6.821673   88.586411   41.111656
H    9.597267   41.785492   52.722298
H   70.837006   20.582840   59.566376
H   27.885609   53.213463   79.292336
H   97.355415   46.097328    5.663023
H   63.720505   97.667809   69.226311
H   52.752907    2.950190   92.955956
H   24.105452   75.708252    5.251248
H   25.726158   62.775314    4.016974
H   96.324516   92.950119   10.621460
H   46.409515   87.928368    0.067412
H   96.913597   41.582851   52.660618
H    8.745928   25.273918   14.534502
H   55.417297   79.179848   41.466610
H   12.780698   99.322983   56.197121
H    0.310074   29.769197   61.361134
H   44.359638   58.269485   42.705158
H   38.772594   57.987175    5.030581
H   69.142944   98.998741   58.125500
H   99.465828   51.185398   26.508389
H   60.733414   65.876366   52.775787
H   26.361134   37.464916   27.264473
H    0.671992   49.393387   20.635048
H   67.844215   20.459578    5.238744
H    4.582619   79.848488   91.180977
H   13.814091   99.405441   71.073906
H   33.086933   38.109241   96.712563
H   19.983831   45.840782   61.261028
H   68.688705   41.964500   87.518333
H   72.098091   50.130257   21.728725
H   96.401352   76.736755   52.490383
H   56.393528   16.143919   50.166210
H   36.812946   54.996681   48.594223
H   36.035439   51.330788   80.108604
H   23.680696   61.214104   80.151161
H   42.916676   78.876923   34.261925
H   59.254944   64.495293   26.592949
H   99.816879   13.074130   91.697708
H    9.769437   22.972565   43.379982
H   71.030663   40.259983   78.792824
H   88.365219   58.387348   21.501398
