100
TIME:    4.027, STEP:  4027
H   44.992340   52.724884   95.459183
H   89.260048   23.080469   32.020607
H   48.975189   63.622475   76.072716
H   82.152527   66.737785   19.429056
H   59.101578   95.539314   56.515839
H   65.578743   96.845345   77.553764
H   41.914997   33.260044    5.369621
H    3.372040   36.988407   38.448383
H   54.636589   99.113647   46.602131
H   64.793251   74.205116   65.385101
H   25.673294   28.277409   51.847973
H    2.139374   25.543131    6.283163
H   87.095993   18.069546   24.879227
H   55.687355   92.663521   63.697819
H   29.485287   10.319668   57.199551
H   39.608109   59.512932   98.764587
H    0.279647   48.324688   39.982048
H   87.192223   98.867470   59.933857
H    7.990232   47.292084   75.519455
H   84.023766   20.298376   90.509544
H   25.308823   55.317509   47.942551
H   48.452759   49.429886   76.342041
H   31.977776   61.870888   17.132690
H   44.889580   84.979218    7.992397
H   85.555939   66.799255   66.280128
H   28.190950    7.619385   11.720125
H   14.825754   75.080704   79.871925
H   92.755554   44.406448   99.881065
H   98.733582   14.453092   66.813789
H   55.406036   91.171165    3.523936
H   74.544304   83.164238   90.775520
H   20.024275   41.249092   26.464470
H   54.014645   73.847939   60.580917
H   48.252182    4.672267    2.100832
H   80.670502   54.509819   69.943420
H   22.695623    0.827038    6.786485
H   66.039810   57.058578   25.777029
H   97.549919   85.254936    6.616498
H   75.092743   93.677177   54.065895
H   83.894814   35.188873   54.871059
H   60.034729   94.361145   37.220074
H   69.697311   92.591507   91.993622
H   45.927746   87.648666   92.348412
H   22.207602   80.259827   74.472900
H    7.343615   73.005096    0.711517
H   26.133839   39.725666   99.518745
H   73.195602   43.840233   64.123116
H   56.454479   36.846756   17.745827
H   82.743088   98.934357   83.835815
H   10.335773   92.028862    2.011730
H   43.237385   80.862450   95.876862
H    0.838071   90.063736    9.696011
H   92.405754   45.358643   68.988747
H   83.436577   41.502350    9.517226
H   20.158188   11.504572   34.598095
H   98.604904    8.297979   55.538223
H   51.545139   73.349251   38.988731
H   26.197014   96.586861    9.828426
H    7.878393    8.919029    2.327721
H   93.278885   37.316975   49.073128
H   13.726656   91.298363    0.420075
H   55.988518   90.459335   13.144271
H   47.453854   32.488335   57.326988
H   19.565924   63.700386   17.805981
H   92.160652   39.214161   70.586006
H   53.960121   42.078651   84.291473
H   64.474777   87.586273   61.485943
H    2.193214   47.846024   58.716488
H   57.608871   60.431793    7.665251
H   11.973791   50.689873   93.253418
H   94.156258   21.402809   13.840954
H   41.922440   17.877060   51.460506
H   44.423920   19.114979   58.498596
H   41.561535   94.542671   63.883354
H   56.327885   34.380009    6.671559
H   20.857317   65.667076   24.963867
H   32.580139   77.513474   62.268604
H   21.176113   87.405022   36.836296
H   54.620628   41.690159   62.616219
H    2.033424   89.634773   73.991600
H   89.677689   70.942825   20.673204
H   43.475868   70.526932   50.042480
H   72.586464   74.475861   13.451824
H   27.201708   56.758247   95.613205
H   56.248016   96.992607   57.379913
H   58.613323   56.974670   21.430481
H   36.108955   10.557228   15.566555
H   20.776983   82.882988   53.863678
H   39.256210   69.955330   95.255135
H   10.297296   43.594803   68.170792
H   88.824005   90.878151   18.504679
H   76.253647   98.353081   10.259130
H   43.591942   48.347878   30.418619
H   36.452793   57.501228   98.338997
H   86.965385   89.015221    8.623631
H   26.535309   36.708809   59.449165
H   42.957764   98.782082    5.592289
H   21.647947   50.525177   91.597984
H   16.876213   54.209110    7.732735
H   89.343742   75.292519    9.806001
