100
TIME:    6.434, STEP:  6434
H   82.217361   31.991510   93.255508
H   22.783813   53.514126   83.790077
H   90.360870   36.791206   47.818439
H   82.556534   67.569489   87.493408
H   37.542297   88.470901   91.253784
H   28.245602   94.237663   15.926495
H   15.764707   95.791389   93.600258
H   14.186584   45.224194   17.444851
H   95.467873   67.690506   95.089027
H   99.023964    8.766741   59.634861
H    1.780025   25.128286   19.994396
H   10.271721   46.193699   34.949394
H   33.499924   72.513695   85.706963
H   36.507179   85.244484   46.870968
H   58.753365   95.316246   41.491161
H   42.827179   48.987892   98.962402
H    6.723069    7.530742   59.100746
H   38.655277   81.760712   76.488808
H   45.476940   48.268730    2.331443
H   19.174980   69.176796   54.389244
H   82.474045   15.691914   82.612602
H   79.214188   52.625214   71.363754
H   99.839027   42.294914   48.266647
H   21.246250   13.797579   29.228304
H   99.468330   75.912003   84.056435
H   17.216520   36.454529   85.392616
H    7.267498   75.024490   27.627668
H   89.659653   56.757072   79.447556
H   51.072166   32.834454   53.033173
H   47.700825   31.598503   94.873550
H   69.275612   99.005302    0.341403
H   72.003967   74.745422    3.636451
H   23.559071   97.740776   77.422485
H   49.953926   84.085068    0.697945
H   20.831818   72.525978   16.500132
H   31.933867   89.366951   99.197823
H   96.903633   68.908325   15.439198
H   98.064613   41.208675   76.470497
H   73.492371   41.229729   20.809805
H   57.181828    9.853413   44.248432
H   95.533798   76.948158   93.927956
H   57.991516   66.834076    8.427464
H   66.658295    2.083485   66.207542
H   68.509811   20.637228    9.818540
H   98.554253   78.038376    6.684730
H   95.074181   85.635544    9.300047
H   92.000290   74.740616   87.224968
H   56.583027   61.638092   66.677383
H   53.100143   99.586952   87.819168
H   60.823177   28.662191   33.666328
H   43.059803   48.482544   21.251053
H   17.815319   66.713150   51.684181
H   42.333347   59.315247   29.191618
H   27.695580    2.223466   15.731036
H   28.510658   22.449673   55.073902
H    1.609298    5.765779   73.598251
H    4.140483    3.895984   67.914375
H   46.966461   69.275581   47.830917
H   97.713501   10.621974   17.544853
H   34.441055   22.326488   80.612328
H   65.562309   79.360245   12.751328
H   70.562691   68.055313    4.234571
H   10.864275   68.238441   92.271759
H   84.851181   76.811829   52.458790
H   87.699341   46.971684   94.739037
H    6.096512   22.419731   26.612135
H   71.356552   70.800446   77.695450
H   35.925484   85.504250   73.785004
H   77.572487   87.480133   56.704617
H   60.733856   71.754814   88.184967
H   17.723770   57.631882   84.968941
H   43.454189   37.993164   27.688801
H   87.482010    0.055923   96.778381
H   88.572227   42.211208   20.866949
H   72.378777   37.814068   89.138565
H   77.762764   19.931408   63.001518
H   51.127529   68.922508    4.849511
H   34.261349   30.016405   69.766731
H   70.045280   34.620037   89.465263
H   83.995895   58.529335   66.626335
H   36.776009   95.844345   64.534119
H   24.099520   86.196274   48.735622
H   24.839691   14.717345   42.685410
H   92.798698   62.730492   75.770134
H   39.047264   46.435425   24.048126
H    3.209477   45.386299   88.579590
H   96.867027   35.548576   30.341406
H   59.505424   90.218628   28.867249
H   89.206161   35.936882   75.568977
H   97.486221   44.564678   54.215469
H   87.328423   20.849739   69.336105
H   54.349743   79.377792   56.116859
H   97.885406   20.570797   16.555674
H   69.087593    3.516465   60.633728
H   45.352669   73.411667   63.932590
H   25.343643   41.659454   35.124619
H   51.901512   36.913605   67.164093
H   25.858217    4.813913   49.717979
H    2.212289   64.585777    6.121475
H   38.851254   13.528446   77.933220
