100
TIME:    8.972, STEP:  8972
H   10.582591   99.246651   90.931900
H   52.691238   91.043076   43.818592
H   33.991337   19.385426   18.022705
H   82.982529   63.004143   48.377411
H   14.802340   91.902618   22.437595
H   88.887207   91.488060   67.273987
H   82.747124   67.171593   92.075249
H   14.704788   64.792831   84.414558
H   33.078987   23.671238   35.331562
H   29.702658   45.209629   59.010811
H   65.701447   27.249199   75.520439
H   13.403839   73.410652   54.292091
H   71.634964   18.925041   33.494972
H   10.842000   77.421669   40.013653
H   89.579903   68.609566   19.437767
H   40.779144   27.005150   88.286194
H    2.632070   75.398155   90.144905
H   92.924881   58.261406   88.512772
H   85.007935   54.741360   36.041157
H   50.792606   15.283583   27.188044
H   31.865517   63.027298   13.729177
H   22.534723   55.994446   55.229599
H   65.953072   21.658381   75.650681
H   85.429901   44.159393   40.735477
H    8.694793   74.636459    2.798880
H    5.302574   61.608932   46.577168
H   88.413445   69.523270   77.986496
H   75.509827   75.222336   63.341667
H    6.258222   63.101986   33.059959
H   45.018852   68.782394   96.637299
H   69.162086   26.592632   99.543015
H   32.254749    4.626906   68.681099
H    2.331745   12.048351    6.065571
H   57.190628   51.492401   93.776039
H   57.667458   80.363716   70.917480
H   52.557941   88.157593   91.220100
H   40.330528   75.960701   15.423680
H   93.163261   94.759621   55.569275
H   66.363029   85.933434   74.859055
H   18.131678   72.255379   43.933128
H   22.078665   64.030701   53.720913
H   44.102661   76.786865   37.997410
H   88.500214   17.308529   49.529110
H    6.452771   63.243835   57.967945
H   78.400818   77.911736   23.869913
H   62.312302   34.037975   19.611059
H   11.836339   12.766008   11.591003
H   56.735226   87.778687   23.713657
H   27.290985   89.389503   86.577393
H   14.106256   67.294670   56.211422
H   42.885532    3.454445   48.007385
H   41.168652   31.203636   85.079964
H   94.971046   74.031433   81.793350
H   68.917419   60.822227   27.725170
H   26.431198   44.868301   76.652740
H    4.770374    3.096050   87.198730
H   65.036270   30.663399    9.299340
H   57.982117   29.592836   82.456444
H   97.880913   17.867685   22.704733
H   66.958076   17.405468    8.425560
H   25.661459   61.329906   14.868956
H   80.484093   44.431961   89.400261
H   83.170105   95.049461   18.233490
H   59.132153   90.637299   83.549911
H   88.437180   44.265476   31.092375
H   50.184700   96.249016   76.679024
H   67.728104   58.545330    0.229490
H   60.608353   30.656292   95.116089
H    4.064050    5.115623   97.523682
H   12.241652   99.285904   82.814148
H   37.125462   84.944588   54.529671
H   34.445030   53.694725   13.690227
H   22.000687   74.517815   31.707607
H   32.700298   81.581581   70.067909
H   94.661987   41.526020   81.564774
H   37.761726   82.594353   92.227798
H   81.631668   49.251629   49.863754
H   53.494617   64.069389    9.938888
H   91.753975   27.165127   17.784021
H   59.529930   20.271997   47.975365
H   86.457222   22.101816   16.227623
H   14.548113    2.657898   36.406578
H   85.373100   57.161777   84.390984
H   67.407219   79.912575   43.963337
H   15.469315   87.668076   78.018921
H   44.802151   38.610291   64.826111
H   66.374443   51.014671   51.362801
H    0.323454   87.126381    2.552261
H   41.880131   94.626122   54.811409
H   73.094162   40.144516   44.943459
H   91.193871   57.890957   22.934349
H   42.136044   70.259613    4.481820
H   60.575993   96.718742   12.823115
H   14.374647   57.493763   31.765711
H    1.468813   46.073040   22.252787
H   34.972031   41.436951    4.033348
H   50.446983   82.563530   21.200447
H   20.959276   30.395382   98.766319
H   81.307732   75.545464   93.537865
H   96.497604   48.396900   33.438877
