100
TIME:    7.957, STEP:  7957
H   79.222893   92.326469   91.861160
H   80.723923   36.042423   79.820084
H   16.544474   46.362061   29.936596
H   82.812164    4.821304    4.011683
H   23.897474   10.545888   49.957840
H    4.624419   92.587685   66.755287
H   35.943935   98.631454   12.700932
H   94.481781   76.983086   77.608864
H   58.029625   21.259979   99.221680
H   57.425911   30.635729   19.268208
H   60.114273   86.409882   73.290359
H   52.146248   22.533657   26.540752
H   36.358330   80.358948   34.362362
H   61.098061   80.550179   62.772526
H   77.251717   59.274368   68.247833
H   81.589157   15.780817   72.540314
H   84.252357    8.265306   97.745453
H   71.222351    7.651429   23.697449
H   69.195023   12.158010   82.567337
H   78.140091   36.837681   58.082161
H   92.097069   64.073792   41.276569
H   25.225679   54.647018   41.666214
H   79.504784   29.909437    4.690381
H   79.738297   32.017059   16.117508
H   44.995796   55.131195   95.304176
H   10.089458   91.531113   42.093430
H   75.938538   11.713153   57.850163
H   61.152199   27.845556   29.787882
H   84.187935   71.013321   81.040764
H    6.100419   93.903397   15.947304
H   29.212912   35.575409   79.846565
H   68.167137   32.668003   62.644722
H   30.836943   86.310692   14.626355
H   14.303746   44.511086   36.534744
H   82.927849   57.213463    9.161474
H   64.326080    8.655122   94.410561
H   42.978718   13.132433   35.445705
H   35.115128   13.333611   83.944695
H    9.203322    8.048437   73.220009
H   13.733337   67.276474   64.075989
H   91.447388   29.206663   29.807951
H   29.641426   72.806534   86.179070
H   79.765167   11.219522   76.215279
H   71.261292   46.200279   58.727856
H   66.443993   17.950878   37.012360
H   75.413872   14.681849   15.487467
H    3.901103   57.567024    1.843568
H   56.673275   77.324509   60.911617
H   97.623482   73.450752   27.065475
H   92.799072   51.844067   27.178593
H   42.955227    1.446121   37.305405
H   91.838379   25.387934   51.709412
H   73.923302   68.146118   40.741524
H   92.427704   77.380035   82.937210
H    7.246397   55.919052   68.026108
H    3.506193    4.163732   21.751740
H    0.692183   59.950584   12.764453
H   33.560715   25.447084    8.600339
H   17.825832   74.980537    0.626880
H   33.938789   39.389980   37.294579
H   61.634350    8.534842   94.006172
H   16.508461   53.879440   35.325104
H   14.260863   64.311676   87.835083
H   89.432732   85.108200   11.105092
H   48.150703   25.331614   36.570099
H   12.537312   46.707237   16.664295
H   49.163727   23.457069   51.226482
H   30.721474   72.606560   46.593216
H   53.479195   78.047066   61.184990
H   91.627281   48.302876   84.966934
H   69.361763   54.008133   66.702980
H   18.028065   87.395897   39.291012
H   88.179504   24.726789   57.734638
H   55.041264   45.820736   30.375074
H   45.767410   40.031460    4.606828
H   13.763762   17.541466   60.523018
H   89.447960   37.102188   31.859365
H    5.814064   30.434063   53.876156
H   43.079552   30.146503    6.456421
H    9.306819   75.563805   35.418465
H   66.586540   11.601174   55.561935
H   38.383354   96.072906   21.321911
H   21.172194   40.187290   87.727386
H   97.578636   93.056641   36.668049
H   64.890472   51.161747   76.411140
H   68.163925    1.326907   94.341309
H   98.584816   24.813759    2.963739
H   83.999474   68.348022   13.076256
H   20.814842   51.138954   63.112801
H   62.834095   81.903702    8.661491
H   49.655933    3.087385    1.499123
H   67.036324   93.922180   85.139381
H   95.512650   66.269981   34.331604
H   16.279531   95.914879   63.327068
H   19.019863   36.990265   98.930725
H   51.137177   81.519043   56.459557
H   31.012735   24.314911   79.574196
H   22.918467   80.171333   19.144453
H   29.659752   71.162453   78.555504
H   33.451046   74.442520   31.217144
