100
TIME:    6.855, STEP:  6855
H   53.746414   93.384651   92.870071
H   11.158070   76.327049   10.334552
H   97.600662   67.080132   42.875210
H   82.627197   50.224823   64.418579
H   33.771439   22.215818   79.838425
H   21.715656   93.781563   57.620525
H   93.700012   24.219761   26.523081
H   81.096809   81.646332   78.790825
H   85.118889   27.213196   68.590233
H   87.525093   14.812481   76.118721
H   62.619629   42.068241   79.440804
H   94.203400   67.296371    4.983076
H    6.634964   47.053440   43.874199
H   15.662706   83.946846   78.908928
H   63.866829   57.710442   21.246082
H   25.899490   12.165726   64.016113
H   72.868752   35.375599   97.426033
H   47.658443   61.274734   61.894058
H   52.032581   65.931030   24.510220
H    7.833496   60.236012   83.052910
H   57.491302   73.780914   71.184395
H   19.575867   53.184097   35.511688
H   94.218071   38.870949   36.221741
H   82.129921   18.833956   97.961121
H   84.410591   42.524666   87.165627
H   15.285351   24.014927   45.797180
H   70.965416   57.524460   35.982014
H   54.136101   76.407936   93.361832
H   60.226295   71.031258   33.131775
H   63.844212   21.178856   28.341049
H   85.842979   36.756821   67.033226
H   98.586273   63.111897   64.662376
H   53.214779   66.937935   15.349492
H   67.741844   45.502823   82.961472
H   10.353922   40.650337   42.115631
H   68.531105   22.341862   97.874489
H   37.282814   53.490845   48.612461
H   80.662132   33.503147    6.180684
H   55.722225   32.056328   80.012054
H   17.529408   70.441879   77.372238
H   66.760925   91.395622    3.846285
H   22.512039   68.485031   29.920395
H   70.281403    4.609053   96.618523
H   41.628254   27.703573   50.980743
H   62.034271   61.426540   42.711369
H   89.639519   93.665482   11.010424
H   95.289352   97.635574   91.265633
H   56.606014   65.974258   92.726501
H   65.405586   64.717751   71.026962
H   69.661377   35.070919    4.229823
H   43.030895    7.837257   25.688396
H   38.279926   27.646118   24.048347
H   51.066708   61.756348    4.740458
H   17.947235   95.355469   34.307693
H   94.989212   59.345215   58.655254
H    2.133653    5.322928   59.266418
H   30.829142   91.748100    7.955000
H   15.618415   29.517653   36.987289
H   30.916290   28.412861   85.225639
H    6.660412   54.687138   68.638084
H   92.118919   59.780739   79.925888
H   55.620583   64.136703   85.186966
H   39.446453   39.510536   63.402527
H   13.759830   79.105179   41.027370
H    4.408562   13.346409   33.945713
H   80.234039    1.491056   51.504944
H   37.579422   85.357117   98.020828
H    6.844007    9.581752   93.911240
H   98.553108   57.229752   30.298969
H   69.263634   92.928154   87.298462
H    4.354514   28.987488   79.919716
H    8.753478   24.014259   58.519402
H   60.032471   79.231430   85.986145
H   79.302467   15.566883   95.853302
H   92.678459   38.414707   21.053711
H   87.713463   46.914494   34.675110
H   89.362885   32.483082   12.315916
H   54.040691    2.488103   93.015007
H   90.235756   33.383427   94.161171
H   63.349319   35.595833   30.356712
H   45.014725    0.199829   89.696732
H   55.689697   88.926453   13.515472
H   51.470177   21.757849   82.778992
H   21.763077   98.756004   37.318600
H   18.547728   20.100441   83.237068
H   93.521225   60.851959   17.815399
H   24.984743    4.938203   50.416252
H   66.276268   56.530720   24.502174
H   97.942734   12.497105   72.125740
H   60.265530   27.242496   69.264694
H    4.557526   43.581673   78.226852
H   85.499481   11.041070   64.137215
H   24.872059   33.203495   49.112251
H    9.776391   29.057703   89.021164
H   38.074333   35.700668   73.607056
H   60.116486   25.034945   13.379450
H   18.484774   61.074081   42.952225
H   25.045588   25.645115   41.267273
H   82.156761   66.403755   70.859871
H   65.000069    2.725164   37.376713
