100
TIME:    0.533, STEP:   533
H   81.277992   73.142525   98.658035
H   86.443840   33.643230   11.621743
H   88.922119   12.250274   17.081573
H   81.566071   10.690096   10.947198
H   90.397018   15.479821   51.253120
H   19.751240    0.633545   31.530073
H   25.036392   97.327492   32.134068
H   77.993546   34.713108   59.256676
H   40.525841   35.047699   66.537956
H   60.274529   24.038563   28.561632
H   50.676666   87.689056   88.408150
H   35.497608   50.407158   54.989326
H    9.358781   29.460297   72.152428
H   28.690739    3.433906   97.800713
H   86.985100   22.414049   25.151121
H   80.093094   65.118233   88.796371
H   81.214149   17.245132   21.883291
H   12.534268   68.780838   81.068161
H   53.563957    0.711550   91.443802
H   78.221565   94.356842   52.550362
H   32.647568    3.154858   42.776466
H   13.455443   44.803436   73.872261
H   78.627708   90.287361   17.100033
H   69.520050   43.074253   67.490692
H   10.520918   43.903606   40.494522
H   44.215038   11.728133   39.215286
H   16.117201   20.320465   10.542906
H   87.568016   81.317825   84.392441
H   22.760834   97.450218   31.976322
H   21.430918   77.648026   25.760273
H   37.068455   69.839439   67.234703
H   99.411438   37.785233   49.921593
H    7.901091   29.484987   45.813805
H    0.622271   24.876312   49.296455
H   67.523277   18.629623   57.183273
H   18.897434   26.355696   18.810354
H   30.920975   85.015968   50.463573
H   41.959999   49.198795   60.052509
H   26.758148   69.130013   91.040985
H   12.991146   62.286472   79.969902
H   98.817963   74.468376   54.898830
H   83.718163   35.779251   27.841253
H   15.831914   66.696182   39.972214
H   45.323395   21.703913   32.845833
H   10.422039   10.862462    1.717305
H   71.144173   73.223930   85.408455
H   41.708057   54.494350   32.177681
H   56.267879    0.871078    1.556980
H   80.609550   88.306381   23.212000
H   37.068501   38.861996   46.385483
H   43.503956   18.185892   59.036747
H   31.034964   14.280193   39.071854
H   19.935541   25.099243   71.915291
H   64.346237   98.505760   55.336079
H   98.326843    5.230029    4.928921
H   94.233139   11.971786   74.482224
H   30.041641   74.167412    6.680164
H   86.370544   26.551704   99.825638
H   32.313393   61.289200   70.565704
H   23.846474   68.756912   48.449791
H   93.322372   53.782791   72.838074
H   79.993927   22.984268   71.239639
H   10.385534   70.806877   96.992043
H   79.639961   44.693871   12.668501
H   53.479004   18.274014   45.198677
H   68.602333   15.776081   77.700981
H   44.805351   66.787537   92.794968
H   43.547905   48.020309   91.683083
H   83.467033   11.488335   26.803379
H   41.183456   74.952782    0.609946
H    5.106489   59.138866   55.754917
H   30.019068   33.836388   95.645058
H   72.239105   91.942848   48.082348
H   18.459206   15.650057   71.530830
H   87.869919   29.402094   41.803272
H   38.259617   41.733093   60.064335
H   15.347556   80.348015    0.465481
H   57.021637   15.868805   43.876369
H   87.100441   51.941257   23.631596
H   73.386185   79.926689   75.002777
H   21.312229   34.795788   11.845005
H   81.314873   47.708450   42.209984
H   51.519947   16.153738   80.665527
H   86.835236   57.771091   14.746468
H   26.377214   15.543708   96.084190
H   39.025547   28.631824   78.796333
H    2.752591   64.599480   48.958630
H   64.535416   62.620720   90.199272
H   66.744087   64.495522   23.839817
H   19.211796   87.354218   43.266537
H   45.835117    2.212785   44.717724
H   17.723558   35.592354   43.679169
H   19.482075   43.600945   60.149193
H   98.743599   45.563484   62.754726
H   47.377033    1.985908   28.333763
H   37.945221   74.683647   39.918907
H   20.295355   98.268349    6.535530
H    8.822152   20.775848   47.507683
H   83.321251   39.147846    0.405641
H   72.342575   65.014595   46.350693
