100
TIME:    8.988, STEP:  8988
H    9.500590   97.779366   90.917252
H   52.249344   91.910019   44.827503
H   34.266361   20.536488   17.834900
H   82.985214   62.344963   47.500336
H   14.658968   93.185089   22.003819
H   88.639160   91.470726   68.858459
H   81.908501   68.251915   93.326469
H   13.447220   66.177109   82.945564
H   32.685677   22.132847   34.324360
H   29.265585   45.439365   59.637276
H   64.213165   27.892937   73.979179
H   12.793121   74.212654   53.153175
H   70.614700   17.956657   31.905003
H   10.049794   77.372353   41.231304
H   89.774239   67.180367   18.668358
H   40.135834   25.605736   86.958069
H    1.345426   76.456505   91.601448
H   93.267166   57.482841   87.958084
H   85.257202   55.412624   36.884052
H   50.361576   14.943800   28.277399
H   30.916054   61.434402   13.294912
H   24.068659   56.015686   53.867050
H   65.739449   21.528315   75.192917
H   83.943329   44.350800   39.547123
H    8.122558   73.367661    2.916990
H    5.227104   61.137253   45.071430
H   87.033806   68.858231   78.303879
H   74.159729   75.969162   63.870598
H    6.606137   64.553642   32.303612
H   45.632378   68.386398   97.909271
H   69.791725   28.027386   98.277145
H   33.265003    4.184874   67.199898
H    3.458790   10.877758    7.506978
H   57.866653   50.026093   93.101967
H   57.269264   79.152290   71.890869
H   53.948811   89.410767   91.169807
H   41.865074   75.374763   16.684408
H   92.501884   94.466896   56.698303
H   65.687737   85.584801   73.308517
H   16.624659   70.757576   45.192039
H   20.985220   64.579773   54.097866
H   42.754272   76.849609   38.814182
H   88.637909   17.404537   50.684750
H    5.431180   63.512512   59.532276
H   77.012878   77.280632   25.239115
H   62.105881   34.343151   19.676062
H   11.961431   13.636187   11.744659
H   56.736202   87.943481   24.703648
H   27.758636   88.064308   85.939209
H   14.442102   67.538322   55.092648
H   42.884434    1.909706   48.176086
H   41.946239   29.718956   84.029671
H   95.302834   74.124207   80.864151
H   68.546814   60.561119   28.431164
H   25.157211   46.270523   76.788727
H    4.790302    3.079220   86.654053
H   66.050674   30.201729   10.821099
H   56.790710   28.081789   82.044334
H   99.142876   18.543772   21.476400
H   65.902168   18.635326    7.970482
H   26.670797   60.585888   13.621489
H   79.916222   44.283035   88.676384
H   84.256287   93.957664   17.136322
H   60.230907   90.724457   83.115585
H   89.072189   42.987522   32.582401
H   49.201790   95.453606   77.625069
H   66.444412   59.098431    1.002004
H   59.503128   31.571392   95.880981
H    4.861520    3.965966   96.520264
H   12.566604    0.089609   82.780212
H   36.617283   83.855965   54.337776
H   33.127525   53.163475   14.862987
H   20.957474   73.726311   31.297329
H   32.348125   80.568886   69.117226
H   95.432739   41.549580   82.777908
H   38.140022   83.619743   91.151138
H   83.084793   47.866741   50.147568
H   54.246204   63.023247   10.822555
H   92.521309   27.118130   17.962610
H   58.745262   19.400354   46.596947
H   86.770454   22.267344   17.183922
H   15.748705    2.761765   35.068077
H   86.385063   57.429356   85.914665
H   68.508049   81.281715   42.502033
H   14.690262   86.667099   76.467896
H   44.433865   39.198059   65.937195
H   67.443047   49.851341   52.125740
H    0.580759   85.846107    2.386375
H   42.212162   93.735252   54.680550
H   71.679611   39.486191   45.515358
H   91.848656   58.754848   23.272240
H   43.319881   71.462982    4.786644
H   61.601627   97.198723   14.060420
H   15.920973   58.464466   32.844555
H    1.192152   44.639812   22.620401
H   36.293564   40.805115    3.206902
H   49.176964   83.481743   20.280220
H   20.928392   31.187069   98.445030
H   80.545525   75.614555   92.197777
H   97.491501   47.986378   31.897495
