100
TIME:    4.790, STEP:  4790
H   93.394691   82.753975   94.760635
H   68.187202   64.428589   80.131104
H   62.090416   18.515697   67.119667
H   82.280594   35.303154   77.607552
H   52.267456   56.697128   35.827194
H   53.744961   96.018730   53.116467
H    1.927195   84.781387   65.037247
H   43.401741    2.998538   68.392860
H   35.880592   25.754532   98.572807
H   43.941612   85.160667   95.259644
H   54.700897   58.978565   78.352005
H   73.021172   63.788597   51.971382
H   38.407242   71.929359   49.063477
H   17.908672   90.311745   21.760927
H   38.765114   42.165039   20.520905
H    8.928047   92.778030   35.429626
H   38.923897   98.792923    9.440947
H    3.498947   61.751019   33.479443
H   19.874268   79.300232   15.718691
H   63.463341    4.094988   42.458076
H   80.031334   79.357941   27.235771
H   21.602310   50.442780   11.365494
H   21.790627   55.665459   95.301865
H   73.998581   94.130188   51.326561
H   58.266022    6.287857   71.915077
H   24.710798   85.052155   39.988255
H   49.032234   43.362865   95.007118
H   28.375832   80.020721   25.103495
H   15.325341   83.678429   30.745564
H   84.663528   72.287102   64.179817
H    4.570823   51.583591   30.409386
H   68.200752   20.170425   55.829750
H    7.757929   18.023092   29.317984
H   80.490143   34.747742   69.956169
H   61.704941   96.832687   16.406418
H   89.024429   60.602070    4.367940
H   39.222366   29.116383   85.898666
H   66.010506   71.295631   60.457272
H   42.885891   77.051750   80.125854
H   12.029333   63.760498   14.901178
H    7.889513   20.540648   55.196026
H    1.122588   26.835188   27.838137
H   52.499912   92.224152   47.460159
H   73.485153   93.043243   49.076515
H   41.158588   42.901787   66.003807
H   16.290142   54.278736    2.619719
H   79.156540   85.333946   71.446220
H   56.495228   44.705414   64.955986
H    5.048869   35.741711   53.400406
H   26.338329    3.638212   48.644600
H   43.179173    7.199650    3.921093
H   37.916847   19.262804   59.608620
H    8.230393   49.782776   24.672873
H   65.763329   29.050743   43.185265
H   59.408142   78.374275   41.088764
H   99.559586    7.495108   29.563904
H   99.918045   51.333366   11.556376
H   69.382217   24.531397   90.175156
H   68.052818   41.158752   43.752388
H   42.927700   95.962677   27.371590
H   61.857605   55.813503   40.929420
H   28.908499   83.357437   78.622589
H   99.252998   80.421921    5.005791
H   71.961220   67.856323   97.089050
H   22.445017   78.275238   41.641224
H    7.088509    4.147970   29.405508
H    3.257428   13.965981   98.322678
H   49.487755   91.481949   95.192299
H   95.634109    5.607468   59.813515
H   27.432062   89.065430   91.646759
H   69.928307   69.488342    4.687336
H   79.009308   92.554016    7.322726
H   94.673920   81.373085   38.933449
H   24.762035   46.259266   18.547905
H   93.116829   35.468578   64.512543
H   38.897301   14.566378   73.622421
H    1.855482   11.380596   75.762215
H   57.023235   37.514004   78.974098
H   91.211372   39.448986   71.127800
H   64.614532   48.080616    8.258465
H    4.604866   78.836411   66.275978
H    0.723970   75.509903   86.240379
H   20.852427   87.225037   86.119202
H   79.693726   22.049772   25.924644
H   19.095926   49.268379   83.415688
H   41.050678   84.999519   74.415298
H   87.067986   55.080902   51.949249
H   33.057114   21.795507   45.929344
H   55.089951   27.472319   89.014778
H   42.838428   12.200920   95.449066
H   20.049248   32.078426   34.617840
H   32.710392   55.732925   24.797674
H   92.501900   71.244606   89.422592
H   10.198953    3.781075   49.783077
H   73.774483   20.670311   26.154873
H   89.555923    6.580168   20.039452
H   82.394859   42.568829   61.711685
H   24.447958   57.021667   79.385048
H   80.528625   57.498104   43.824753
H   36.736042   55.712376   36.304401
