100
TIME:    7.285, STEP:  7285
H   24.667238   53.951363   92.476395
H   99.283493   99.626152   37.447727
H    4.993281   98.016563   37.826305
H   82.699371   32.509369   40.847240
H   29.919081   56.682217   68.179031
H   15.046233   93.315712    0.203729
H   71.162018   53.256702   60.149639
H   47.299660   18.847416   39.309555
H   74.548668   85.870270   41.522228
H   75.780403   20.986803   92.954964
H   22.622070   59.370335   38.021507
H   77.793640   88.850174   74.374931
H   79.209404   21.034039    1.143723
H   94.371986   82.621468   11.631168
H   69.089607   19.300713    0.568063
H    8.608879   74.556213   28.322584
H   38.290810   63.815464   36.570644
H   56.854076   40.350815   46.990112
H   58.728367   83.967987   47.163036
H   96.248489   51.105991   12.329233
H   31.974487   30.972595   59.513142
H   60.800385   53.754929   98.893265
H   88.476952   35.373787   23.918264
H   42.176498   23.977999   66.027374
H   69.030952    8.422417   90.341286
H   13.257915   11.340176    5.331355
H   33.884960   39.648254   44.514957
H   17.854866   96.478889    7.574872
H   69.576118   10.044397   12.806482
H   80.332703   10.536039   62.525139
H    2.764897   75.315140   33.012993
H   25.736477   51.232700   24.855095
H   83.502815   35.476601   54.087288
H   85.910027    6.095966   64.845779
H   99.651970    8.093269   68.278198
H    5.910527   56.021378   96.522865
H   78.524887   37.743774   82.494904
H   62.887833   25.632893   36.523346
H   37.570446   22.688452   38.341370
H   77.027367   30.185747   11.202737
H   37.372955    6.150703   13.976084
H   86.273750   70.171280   51.871311
H   73.981964    7.188456   27.677120
H   14.172525   34.920982   93.024406
H   24.736359   44.462353   79.507027
H   84.088676    1.866775   12.757364
H   98.648727   21.021332   95.392677
H   56.632259   70.403122   19.332027
H   77.976997   29.106342   53.873840
H   78.689697   41.615795   74.165749
H   43.001369   66.323792   30.220600
H   59.179684   87.744843   95.821716
H   59.986767   64.249634   79.767891
H    7.990494   88.341461   53.282913
H   60.752457   97.027046   62.313168
H    2.669218    4.870610   44.628204
H   58.087978   79.340721   48.851616
H   83.599777   88.908775   25.910948
H   64.828178   46.584324   52.215843
H   78.283455   87.737228   56.407860
H   19.243929   39.785240   46.399475
H   40.359047   60.134323   65.732773
H   68.640343   10.167438   33.916138
H   43.287853   81.447556   29.351574
H   21.476177   79.003937   73.989204
H   53.818329   80.114464   76.929901
H    3.078893    0.224946   18.782080
H   77.140907   34.174919   14.467727
H   19.984810   26.332687    3.329212
H   77.979332   14.552086   86.392227
H   90.700142   99.730301   74.762550
H   73.364784    9.708941   90.034004
H   31.996122   57.965389   74.963196
H   69.834541   88.351746   70.303680
H   13.397302   39.041958   53.655262
H   97.876884   74.473900    5.741918
H   28.416557   95.264717   19.941763
H   74.242874   74.372856   16.762140
H   10.856444   32.120380   98.957466
H   42.261368   12.170812   93.312019
H   53.430779    4.649026   15.397365
H   87.957222   91.714996   77.540672
H   78.668190   28.949011   23.729530
H   51.345173   35.552731   98.045647
H   97.610687   93.201195   41.553261
H   83.626816   76.645615   47.675781
H   53.703465   73.673622   70.920250
H   73.191856   22.120562   20.043785
H    6.867019   88.555458   68.608894
H   22.246618    9.550007   84.637772
H   22.154957   66.799156   87.307663
H   17.315126   43.380676   72.332253
H   52.435993   46.106251   82.364815
H   51.333008   55.145348   18.015116
H   30.640102   97.182999   83.488342
H   95.632690    8.055610   91.169029
H   84.353508   85.751053   18.221848
H   24.215586   46.920551   32.635910
H   61.672447   68.260597   34.842350
H   91.711037   91.689590   95.952652
