100
TIME:    5.536, STEP:  5536
H   42.944984   14.342505   94.077652
H   47.583870    4.850417   27.167625
H   74.918274   72.186096   58.362431
H   82.405807    4.566360   36.715813
H   45.585602   16.492235   15.601782
H   42.174084   95.210533   26.994680
H   62.826748   35.155041   23.375490
H   84.767609   67.535324   99.896019
H   17.542488   54.029587   51.616196
H   23.555738   95.872124   24.473173
H   85.309799   88.995682    6.494316
H   44.548256    1.181899   98.871056
H   90.803329   26.817978   74.936943
H   80.971443   88.012367   78.532463
H   47.837410   75.529739   84.662140
H   78.932983   27.530350   73.504608
H   78.934883   48.133366   77.352264
H   19.451376   25.455627    7.619822
H   31.493523   10.594005   55.018696
H   43.366554   88.250526   93.249275
H   35.762627    5.090391    6.988159
H   93.122055   51.433105   47.836731
H   11.829856   49.598289   73.958633
H    4.683399    3.054903   95.921280
H   31.584183   47.127876   77.424477
H   21.310110   63.002914   69.836487
H   84.703644   12.351364    9.808302
H   65.429176   14.841454   49.764885
H   31.546257   51.361057   95.483185
H   13.268442   53.823784   23.484493
H   33.931313   18.479637   71.388237
H   15.303492   99.560455   86.768822
H   60.306721   63.442177   96.523552
H   12.010377   66.381371   38.527550
H   43.161942   40.441025   61.830505
H   53.872471   19.031937    2.021549
H   10.773786    1.794230   44.680401
H   35.179127   57.644695   13.102358
H   11.394874   60.796745    7.833012
H   41.764034   93.921227   73.596153
H   56.905136   46.135452   72.771461
H   34.076347   60.318008   62.880878
H   58.925648   96.697693    1.345714
H   25.851620    5.564458   22.017004
H   76.448128   13.470771   29.841314
H    6.664053   68.507553    5.651785
H   84.984665   25.904861   78.606163
H   56.535069   52.388977   11.114188
H   26.853210   73.957703   23.640205
H   41.984341   14.992811   96.469894
H   43.122257   35.178787   11.785363
H   74.171883   50.040417   10.633018
H   23.704945   54.108337   81.347313
H   48.488960   16.876564   76.105064
H    0.009914   43.753742   47.434818
H    0.490792    6.710388    4.168304
H   47.209442   29.808006   82.507057
H   13.833776   54.080910   70.960556
H   26.889425   72.678612   86.481590
H   93.700485   53.304340    6.153572
H    8.915432   21.122746   82.765617
H    2.434226   76.413773   44.868599
H   49.900051   29.516752   53.850311
H   23.186371   71.920074   76.838593
H   52.057121   18.692627   11.112475
H   61.260735   67.062126   73.514854
H   43.405182   39.756176   34.341080
H   97.956215   34.147678   30.855413
H   32.815701   52.004677   13.023551
H   42.543930   26.586464   90.075897
H   46.240166   18.731293   95.739021
H   17.498901   67.795868   61.943039
H   46.034119   44.472229   19.804222
H    8.341976   99.046104   74.223351
H   29.084513   36.532894   21.064529
H   56.535347   62.379868   23.427259
H   69.588676   46.722790   88.955177
H   92.071671   88.735008   20.171717
H   26.984547   37.257748   79.448814
H   28.032497    7.446620   43.989838
H   19.202692   86.554123   10.863036
H   56.702904   80.372620   23.854563
H   68.040398   99.700867   57.165119
H   31.018209   85.886398   57.788090
H   82.771599    2.603937   11.099226
H   23.879337   12.399825   26.220001
H   36.891655    0.840489   87.521301
H   45.063103   62.078365   38.178024
H   70.570908   85.936913   82.913460
H   76.882355   81.509933   22.116560
H   50.578606   72.358551   50.371990
H   87.906837   11.839618   39.009422
H   40.321655   93.626717   47.111958
H   82.300667   49.035839    0.083198
H   60.877480   53.849224   43.296787
H   51.172501   77.121246   81.507217
H   23.180624   85.380501   18.808945
H   27.185583   63.373413   67.444221
H   44.990723   60.713818   81.339180
H   83.073120   36.571766   64.441238
