100
TIME:    9.877, STEP:  9877
H   49.380524   16.253990   90.103348
H   27.697174   40.084774    0.880725
H   49.547405   84.495155    7.398577
H   83.134430   25.718710   98.769791
H    6.692884   64.442093   97.900688
H   74.857056   90.507607   56.898888
H   35.316685   28.280481   62.847439
H   43.573578   43.087505    1.319672
H   10.832359   36.658752   78.366158
H    4.980730   58.204090   94.445229
H   81.520477   63.663620   88.344124
H   78.864342   18.773041   89.873772
H   13.926237   64.145821   43.558609
H   66.031555   74.632210    8.883427
H    0.572114   87.770508   75.914085
H    4.389357   47.850449   13.163323
H   29.857521   35.257362   72.530624
H   12.281074   14.223925   57.139771
H   99.107132   92.704544   83.729767
H   26.412457   96.063934   88.804710
H   78.161041   72.932137   89.163437
H    9.297958   57.195847   78.160507
H   53.869926   14.301264   49.758606
H    1.341768   54.985809   73.523224
H   76.326523    2.864143    9.479160
H    1.033504   34.929550   61.413052
H   10.373844   31.901114   95.938461
H   99.149635   17.464680   93.252556
H   25.937115   45.210484   90.281479
H   79.721382   46.383865   68.581795
H    4.776714    7.745942   27.942291
H   89.397232   79.619553   84.900734
H   66.081337   45.833755   87.595116
H   95.428314   68.554588   55.648827
H   35.144646   11.842445   25.977621
H   31.227606   59.044453   88.375404
H   27.132145   42.818611   86.734390
H   55.755650   78.202385   19.433945
H   28.160290   66.213890   87.158043
H   32.890736   87.531021   15.136064
H   60.228363   95.087601   75.042320
H   67.833931   80.340439   84.189445
H   96.288605   22.738998   14.899174
H   48.672520   78.434303   46.453251
H   99.876221   42.172977    1.301789
H   50.636620   51.299480   23.287760
H   18.912540   61.987568   20.281321
H   56.790462   97.099899   79.709976
H   53.742607   14.437567   50.477371
H   33.100990   81.076256   92.932930
H   46.278812   16.342384   52.239136
H   85.150970   47.227135   25.672400
H   13.741474   79.278931   29.231239
H   47.960335   46.053284   67.661018
H   54.373604   24.177618   84.344467
H    5.897551    2.144078   56.390396
H   22.411270    4.549551   95.372246
H   90.594437   44.126549   59.146507
H   69.259209   56.111000   53.228428
H    7.239580   86.967056   82.685219
H   82.752960   19.245310   44.314365
H   48.363884   36.008347   48.453346
H   44.633686   33.332443   56.192612
H   21.275620   95.567184   58.981926
H   24.357296   71.983955   15.370379
H   94.590454   51.258629   30.190180
H   95.117805   89.835785   43.924206
H   98.093651   82.413277   38.380325
H   49.171432   40.088104   40.765026
H   30.621704   44.739613   80.894669
H    8.383984   23.364788   43.675636
H   59.919197   23.645897   80.025299
H   62.993607   29.753485    8.501240
H   12.780521   24.305325   16.295877
H   38.255119   42.858608   50.182331
H   59.159088   40.595966   31.332878
H   63.825142   70.921555   65.916130
H   96.011452    4.896904   59.921303
H   35.151230   24.506855   27.885454
H   15.148427   70.972145   70.008888
H    4.174043   31.464457   70.318275
H   82.457603    8.532929   60.692955
H   42.615570   72.296669   70.579269
H   29.671268   57.355667   61.305092
H   71.404144   31.054359   90.289993
H   23.970966   71.854317   27.672215
H   26.817415   85.213478   94.516563
H   14.876999   14.710120   93.173996
H   60.660648   44.236336   47.409676
H   93.079163    2.907997   77.294357
H   28.230856    6.760122   42.046288
H    9.096880   38.323883   21.722788
H   18.588093   23.873655   82.808159
H   98.380531   12.137063   98.098961
H   85.822723   65.009163   43.047829
H    9.721343    5.700831   57.289047
H   78.612663   34.498352   69.152679
H   19.212412   75.173569   80.593407
H   38.195396   79.453468   17.734928
H   52.708893   25.175709   46.257610
