100
TIME:    7.383, STEP:  7383
H   18.040171   44.964241   92.386673
H   96.576889    4.936787   43.627308
H    6.677899    5.066947   36.675625
H   82.715820   28.471565   35.475155
H   29.040930   64.537346   65.521774
H   13.526385   93.209541    9.909016
H   66.025452   59.874424   67.813370
H   39.597054   27.325367   30.311218
H   72.139641   76.447998   35.353115
H   73.103706   22.393938   96.792061
H   13.506348   63.313602   28.581903
H   74.053741   93.762436   67.399071
H   72.960289   15.102659   91.404488
H   89.519539   82.319405   19.089283
H   70.279915   10.546867   95.854767
H    4.668307   65.984802   20.187445
H   30.410255   70.297836   45.491970
H   58.949825   35.582108   43.593399
H   60.254383   88.078735   52.325771
H   93.607681   49.025196   19.001535
H   26.159027   21.216110   56.853642
H   70.195740   53.885025   90.547653
H   87.168510   34.576759   21.114088
H   33.070496   25.150362   58.748909
H   65.525826    0.650276   91.065041
H   12.795849    8.451511   96.109154
H   25.434217   35.574142   46.459675
H    9.586038    1.053194   10.814385
H   71.707008   18.935568    8.174227
H   84.090546    8.110376   70.315971
H    6.621980   84.103378   25.259544
H   31.924282   48.525349   15.782738
H   90.405403   28.306536   62.915901
H   90.050682   97.114906   60.717087
H   97.213036    0.673359   74.240204
H   14.429390   63.697067   96.214821
H   87.924728   34.154907   90.216949
H   58.837646   23.839207   43.438644
H   33.433529   20.553450   28.844456
H   67.796501   21.011332   18.913195
H   30.675306    9.513074   16.284758
H   78.014870   70.555588   56.874043
H   74.825348    7.776320   34.755413
H    7.915000   36.565880    2.606546
H   16.235603   40.596096   87.893013
H   82.823601    3.735651   13.155504
H   99.414352   26.351173   96.333260
H   56.638241   71.412491   25.395718
H   80.842110   20.990269   49.964218
H   80.747314   43.107418   67.314003
H   42.994640   56.862640   31.253521
H   63.942410   78.651550   89.388672
H   62.019711   64.817871   74.076546
H    5.721283   86.742920   57.607498
H   52.949661    5.615272   63.146832
H    2.791277    4.767524   41.292053
H   64.300491   76.512993   58.172203
H   76.302414   79.653984   23.386404
H   72.556206   50.725727   44.692680
H   71.816017   95.269363   53.620506
H   25.426126   35.228127   38.758926
H   36.880836   59.222153   61.298569
H   75.293205    3.479995   27.195984
H   50.017727   81.981400   26.690578
H   25.365986   71.177216   83.115395
H   47.798004   75.242577   82.724426
H   95.216156    3.612958   23.513777
H   70.371407   39.779533   19.152695
H   24.869408   19.291031   97.182953
H   79.969658   19.474123   86.184372
H   87.588295   93.062485   73.587196
H   65.294319    6.454848   97.217720
H   25.606070   53.118176   72.450989
H   67.676735   82.148987   64.480743
H   18.117785   39.186260   61.085712
H    0.193250   80.754417   99.147804
H   37.317097   86.783028   21.679747
H   78.847092   67.965233   22.174601
H   15.555804   31.832523    0.050599
H   37.455276    6.832164   84.869209
H   55.349327    5.662881   21.254715
H   95.311409   92.350525   69.341606
H   84.866463   30.587927   33.062828
H   58.087009   43.938717   89.094414
H   92.838989   87.070213   32.053230
H   81.371811   80.244949   54.481171
H   60.248661   66.548225   75.593254
H   74.767967   14.278513   19.027687
H    8.901032   83.098885   67.807381
H   13.582068    5.517765   88.141403
H   26.165516   72.091240   89.377243
H   24.566133   50.751312   74.199959
H   58.718006   49.046879   89.943306
H   60.803879   61.090904   24.623117
H   28.945484   88.405228   85.740356
H    3.727123    4.185894   86.107231
H   76.574638   91.375107   12.585570
H   24.026423   51.769260   30.668509
H   57.003929   68.683784   26.633564
H   97.798653   89.174393   86.512436
