100
TIME:    8.088, STEP:  8088
H   70.363762   80.313072   91.741226
H   77.105911   43.141521   88.079544
H   18.796236   55.786880   28.398941
H   82.834152   99.423820   96.831245
H   22.723619   21.046116   46.405792
H    2.592786   92.445763   79.728157
H   29.078495    7.477405   22.945301
H   84.185440   88.316856   65.581474
H   54.809395    8.664548   90.976212
H   53.847878   32.516697   24.397888
H   47.928970   91.680984   60.671562
H   47.145996   29.100048   17.216377
H   28.004921   72.429306   21.344107
H   54.611626   80.146400   72.741173
H   78.842842   47.572800   61.947624
H   76.322052    4.322865   61.666290
H   73.718147   16.929768    9.670903
H   74.022812    1.277061   19.156445
H   71.235901   17.653988   89.469543
H   74.610031   34.056210   67.001259
H   84.323341   51.031963   37.721523
H   37.784779   54.820923   30.510345
H   77.755745   28.844522    0.942191
H   67.566986   33.584198    6.388129
H   40.310371   44.741905   96.271645
H    9.471798   87.669235   29.765297
H   64.642746    6.267436   60.449734
H   50.099274   33.960194   34.118248
H   87.036369   82.898788   74.848167
H   11.123407   90.661179   26.361080
H   34.368809   47.321953   69.482262
H   76.438591   29.048992   50.517387
H   40.064808   76.725960   26.427870
H   19.839127   32.505684   31.015867
H   79.667641   47.294914   17.131880
H   75.713821   18.915983   93.998787
H   55.542812    8.334570   45.768032
H   29.700890   10.936178   93.189613
H    3.673518    5.194506   60.524986
H    1.394632   55.012482   74.382324
H   82.494308   33.701195   32.894253
H   18.601494   73.320251   92.867393
H   80.892548   12.005341   85.678078
H   62.896503   48.399445   71.536407
H   55.081024   12.782562   48.222198
H   73.722801   17.179977   16.019674
H    4.925165   64.691109    3.101689
H   56.681271   78.673767   69.017159
H    1.453038   62.600845   21.839848
H   95.549561   53.837971   18.019127
H   42.946232   88.799019   38.686646
H   98.204880   13.232115   43.110138
H   76.639809   68.905701   33.133705
H   89.393372   75.243210   88.718033
H   96.815865   67.399445   69.139496
H    3.669353    4.025932   17.292191
H    8.996844   56.170662   25.223671
H   23.806498   13.075384    5.225944
H   28.157654   80.515495   90.570374
H   25.294540   49.459446   33.568626
H   69.897812    2.442940   83.791786
H   11.859016   52.660110   29.397583
H   23.154476   55.372589   78.852020
H   98.427788   85.821808    7.548281
H   53.350845   14.868864   48.769394
H    4.490234   40.194817   24.410038
H   38.653503   27.986080   57.551006
H   21.672447   80.098442   52.855774
H   60.008606   68.634239   52.968506
H   94.287819   54.882259   84.689087
H   65.202049   45.094635   65.131844
H    7.240697   83.046288   48.892735
H   79.638199   18.246851   54.375484
H   52.157848   37.530293   22.591852
H   52.077942   40.224354   14.539120
H   16.860880   25.937351   51.708862
H    1.345461   25.763420   34.183060
H   11.967977   21.868771   61.111179
H   49.361099   29.761715    7.918367
H    2.882689   68.427727   24.132668
H   69.151131   12.956429   63.391632
H   48.212952   96.922440   10.362434
H   29.458139   42.378086    0.202543
H    6.591313    4.266579   24.703625
H   58.511978   42.967251   63.712120
H   65.149582    6.138762    3.438380
H    7.334083   15.288975    9.210396
H   86.106316   57.865196   11.718002
H   23.533848   43.844963   62.041389
H   51.251461   76.514664   13.344168
H   55.016987   10.160739    4.265722
H   76.728996    3.774640   87.636009
H    3.909971   70.199821   44.462036
H   28.940073    3.862480   72.160210
H   16.754608   25.255714    1.940905
H   61.957230   76.345886   49.693275
H   20.614950   31.832279   72.040337
H   22.665606   86.653770   16.514399
H   23.419182   71.728142   67.583534
H   41.587574   71.080368   18.597080
