100
TIME:    7.413, STEP:  7413
H   16.011477   42.213081   92.359207
H   95.748337    6.562506   45.519016
H    7.193599    7.225188   36.323376
H   82.720856   27.235489   33.830639
H   28.772108   66.941978   64.708328
H   13.061126   93.177040   12.880016
H   64.453033   61.900257   70.159409
H   37.239113   29.920658   27.556625
H   71.402184   73.563629   33.464611
H   72.284309   22.824694   97.966682
H   10.715820   64.520721   25.692156
H   72.908875   95.266190   65.263603
H   71.047295   13.286882   88.423073
H   88.034096   82.226936   21.372379
H   70.644295    7.867119   94.411896
H    3.462008   63.360901   17.697096
H   27.997841   72.282242   48.222988
H   59.591381   34.122299   42.553589
H   60.721531   89.337128   53.906200
H   92.799271   48.388218   21.044077
H   24.378784   18.229431   56.039509
H   73.071869   53.924850   87.992874
H   86.767967   34.332771   20.255667
H   30.283014   25.509249   56.520744
H   64.452827   98.271210   91.286598
H   12.654400    7.567226   93.286125
H   22.847281   34.326965   47.054996
H    7.054776    2.453484   11.806073
H   72.359322   21.657316    6.756164
H   85.240906    7.367826   72.700920
H    7.802724   86.793655   22.886040
H   33.818508   47.696568   13.005486
H   92.518440   26.111673   65.618538
H   91.318230   94.365578   59.453201
H   96.466423   98.401939   76.065308
H   17.037189   66.046768   96.120522
H   90.802231   33.056274   92.580841
H   57.597794   23.290119   45.555573
H   32.167126   19.899878   25.937313
H   64.970726   18.202837   21.273539
H   28.625097   10.542356   16.991545
H   75.486641   70.673233   58.405491
H   75.083527    7.956278   36.922237
H    5.999460   37.069420    5.539745
H   13.633331   39.412548   90.460152
H   82.436333    4.307764   13.277384
H   99.648727   27.982758   96.621193
H   56.640072   71.721481   27.251949
H   81.719185   18.505756   48.767395
H   81.377197   43.564037   65.216530
H   42.992580   53.966370   31.569721
H   65.400391   75.867889   87.419373
H   62.642040   64.991821   72.334297
H    5.026627   86.253571   58.931351
H   50.561050    8.244380   63.402035
H    2.828642    4.735967   40.270782
H   66.202499   75.647362   61.025444
H   74.068527   76.820885   22.613585
H   74.921928   51.993504   42.389671
H   69.836189   97.575119   52.767235
H   27.318636   33.833092   36.419983
H   35.816078   58.942917   59.941071
H   77.329796    1.432816   25.138794
H   52.077892   82.144821   25.875988
H   26.556744   68.781281   85.909126
H   45.955048   73.751183   84.498260
H   92.809235    4.650107   24.962255
H   68.299110   41.495232   20.586868
H   26.364693   17.135422   95.301544
H   80.578941   20.980852   86.120743
H   86.635689   91.021317   73.227394
H   62.823879    5.458697   99.416817
H   23.649931   51.634335   71.681946
H   67.016182   80.250183   62.698212
H   19.562830   39.230434   63.360340
H    0.902515   82.677025   97.129066
H   40.041706   84.186592   22.211782
H   80.256546   66.003716   23.831476
H   16.994345   31.744404    0.385403
H   35.984024    5.197862   82.284676
H   55.936638    5.973245   23.047775
H   97.562691   92.545074   66.831688
H   86.763893   31.089636   35.919960
H   60.150837   46.505856   86.354240
H   91.378265   85.193382   29.145170
H   80.681503   81.346786   56.564453
H   62.252293   64.366982   77.023766
H   75.250450   11.877886   18.716637
H    9.523705   81.428505   67.562019
H   10.929614    4.283405   89.213943
H   27.393238   73.711266   90.010788
H   26.785830   53.007629   74.771706
H   60.641071   49.947071   92.263252
H   63.703125   62.910973   26.645975
H   28.426723   85.718155   86.429749
H    6.205026    3.001275   84.557701
H   74.193352   93.096756   10.860202
H   23.968515   53.253559   30.066206
H   55.574791   68.813332   24.120670
H   99.662209   88.404434   83.622574
