100
TIME:    7.427, STEP:  7427
H   15.064726   40.929207   92.346390
H   95.361679    7.321175   46.401814
H    7.434258    8.232368   36.158993
H   82.723206   26.658653   33.063198
H   28.646658   68.064140   64.328720
H   12.844005   93.161873   14.266483
H   63.719280   62.845646   71.254227
H   36.138741   31.131794   26.271149
H   71.058037   72.217590   32.583309
H   71.901924   23.025713   98.514839
H    9.413574   65.084045   24.343607
H   72.374603   95.967941   64.267052
H   70.154564   12.439520   87.031746
H   87.340889   82.183784   22.437824
H   70.814339    6.616570   93.738556
H    2.899064   62.136414   16.534933
H   26.872047   73.208298   49.497463
H   59.890774   33.441055   42.068344
H   60.939533   89.924377   54.643734
H   92.422012   48.090961   21.997263
H   23.548004   16.835648   55.659580
H   74.414062   53.943436   86.800644
H   86.581047   34.218910   19.855070
H   28.982210   25.676729   55.480934
H   63.952095   97.161011   91.389992
H   12.588390    7.154560   91.968712
H   21.640043   33.744949   47.332813
H    5.873521    3.106950   12.268861
H   72.663734   22.927465    6.094400
H   85.777740    7.021303   73.813896
H    8.353738   88.049118   21.778404
H   34.702480   47.309803   11.709435
H   93.504524   25.087404   66.879768
H   91.909752   93.082558   58.863388
H   96.118004   97.341942   76.917023
H   18.254147   67.143295   96.076515
H   92.145065   32.543579   93.683990
H   57.019196   23.033878   46.543472
H   31.576138   19.594877   24.580647
H   63.652061   16.892206   22.375032
H   27.668333   11.022687   17.321379
H   74.306801   70.728134   59.120167
H   75.204010    8.040258   37.933422
H    5.105541   37.304405    6.908575
H   12.418938   38.860226   91.658150
H   82.255608    4.574752   13.334261
H   99.758102   28.744164   96.755562
H   56.640926   71.865677   28.118191
H   82.128487   17.346317   48.208878
H   81.671143   43.777126   64.237709
H   42.991619   52.614777   31.717281
H   66.080780   74.568848   86.500366
H   62.932461   65.072998   71.521248
H    4.702454   86.025208   59.549149
H   49.446365    9.471297   63.521130
H    2.846079    4.721240   39.794189
H   67.090103   75.243401   62.356956
H   73.026047   75.498772   22.252935
H   76.025932   52.585133   41.314934
H   68.912270   98.651138   52.369041
H   28.201807   33.182076   35.328476
H   35.319191   58.812607   59.307571
H   78.280205    0.477464   24.178772
H   53.039303   82.221085   25.495846
H   27.112431   67.663177   87.212868
H   45.095001   73.055199   85.326050
H   91.686005    5.134110   25.638212
H   67.332039   42.295891   21.256149
H   27.062492   16.129471   94.423553
H   80.863274   21.683992   86.091049
H   86.191139   90.068771   73.059486
H   61.671062    4.993827    0.443031
H   22.737066   50.941875   71.323059
H   66.707924   79.364075   61.866364
H   20.237185   39.251049   64.421829
H    1.233504   83.574242   96.186989
H   41.313190   82.974922   22.460066
H   80.914291   65.088341   24.604685
H   17.665655   31.703281    0.541645
H   35.297440    4.435188   81.078560
H   56.210716    6.118081   23.884537
H   98.613289   92.635864   65.660393
H   87.649361   31.323767   37.253288
H   61.113956   47.703854   85.075493
H   90.696594   84.317528   27.788076
H   80.359360   81.860977   57.536652
H   63.187321   63.349068   77.691338
H   75.475609   10.757593   18.571480
H    9.814286   80.648994   67.447517
H    9.691802    3.707371   89.714462
H   27.966175   74.467278   90.306442
H   27.821688   54.060577   75.038521
H   61.538502   50.367161   93.345894
H   65.056190   63.760338   27.589975
H   28.184635   84.464188   86.751465
H    7.361381    2.448452   83.834587
H   73.082085   93.900192   10.055030
H   23.941492   53.946232   29.785131
H   54.907860   68.873787   22.947987
H    0.531818   88.045120   82.273972
