100
TIME:    3.995, STEP:  3995
H   47.156403   55.659454   95.488480
H   90.143837   21.346338   30.002905
H   48.425140   61.320229   76.448204
H   82.147156   68.056145   21.183084
H   59.388199   92.974373   57.383514
H   66.074837   96.880013   74.384819
H   43.591999   31.099155    2.867156
H    5.887177   34.220097   41.386616
H   55.423210    2.190347   48.616535
H   65.667763   73.745644   64.132172
H   28.649857   26.989811   54.930248
H    3.360795   23.939127    8.560896
H   89.137985   20.004726   28.058914
H   57.271828   92.762154   61.262516
H   29.096004   13.178005   58.737881
H   40.894730   62.311760    1.420888
H    2.852930   46.208233   37.068962
H   86.508629    0.423631   61.043476
H    7.491849   45.949554   73.833420
H   84.886070   20.977942   88.330833
H   27.207748   58.503300   48.810959
H   45.384888   49.387405   79.067139
H   32.405022   62.131142   18.048340
H   47.862724   84.595428   10.369045
H   86.700470   69.336853   66.043800
H   28.337801    8.572827   14.719454
H   17.585154   76.410782   79.237160
H   95.455750   42.912796   98.823448
H   98.037781   11.549832   68.326485
H   54.178986   91.963158    0.980094
H   73.285027   80.294609   93.307259
H   18.003767   42.133125   29.426872
H   51.760494   76.189247   57.698105
H   46.900131    7.604854    3.448870
H   81.465912   56.928764   67.994690
H   19.913031   98.313324    6.896928
H   62.970558   58.230453   23.255545
H   98.872673   85.840385    4.358411
H   76.443329   94.374443   57.166969
H   86.908974   38.184723   52.353237
H   62.221741   93.263000   36.466167
H   72.573288   91.155472   90.490204
H   45.652111   87.456772   90.036888
H   24.250937   79.723694   71.343994
H   10.119371   74.267792   97.973206
H   26.546680   39.115314   99.388863
H   72.945602   42.099998   63.815842
H   56.452770   36.517166   15.765846
H   81.807541    1.584604   85.112183
H    9.664630   91.542046    4.249784
H   43.239826   83.951805   95.539459
H   99.282959   93.032974   11.796841
H   91.742180   45.173096   70.847145
H   84.177788   42.024567    8.105239
H   22.706039    8.700129   34.325878
H   98.564865    8.331671   56.627579
H   49.516575   74.272591   35.945274
H   28.579826   99.608833   10.652706
H    5.354712    7.566908    4.784386
H   95.390701   34.857258   49.983284
H   11.708040   92.786644    2.915005
H   57.124260   90.757187   14.592208
H   45.281246   34.671928   59.521324
H   17.368536   63.526314   18.674877
H   90.890633   41.770069   67.606026
H   55.925941   43.669472   82.399384
H   67.042160   86.479828   59.941021
H    4.403725   46.015945   57.186703
H   56.013901   62.731110    9.672270
H   11.325476   49.080254   93.320801
H   95.172371   23.580177   14.224865
H   44.560867   18.939072   49.117489
H   46.510345   20.697742   59.319153
H   42.266125   96.567574   65.784721
H   54.785160   34.334354    4.245687
H   20.100725   63.616249   27.117065
H   29.674719   80.286911   61.702686
H   19.672695   89.497307   35.068962
H   53.086205   41.784153   62.259041
H    3.602791   91.377449   76.748436
H   89.051712   70.611771   18.760729
H   41.074745   70.317947   52.718262
H   70.562050   73.941681   10.403973
H   25.000170   54.019966   98.536057
H   57.806122   98.994072   60.481964
H   59.349895   55.799133   19.208313
H   33.971748   12.883888   14.040615
H   20.261969   85.445000   54.196442
H   38.592148   71.737068   95.516853
H   13.126580   44.911453   67.026749
H   87.514435   89.150124   17.828897
H   73.885971   95.946831    9.649328
H   41.540672   47.387672   27.944010
H   33.359776   55.560066   96.181282
H   87.518608   91.881432    7.888341
H   23.892242   37.972481   61.101997
H   45.497803   96.945656    7.432682
H   21.530516   50.252716   92.110191
H   18.400627   54.071171   10.413155
H   87.355949   76.113808   12.888703
