100
TIME:    8.473, STEP:  8473
H   44.327385   45.006523   91.388748
H   66.472824   64.005280   12.354365
H   25.414011   83.485779   23.879879
H   82.898773   83.562309   75.729561
H   19.273741   51.905567   35.966568
H   96.623169   92.028664   17.855236
H    8.900855   33.475594   53.052799
H   53.925201   21.624414   30.230995
H   45.345360   71.648239   66.743347
H   43.332283   38.044727   39.472939
H   12.117203    7.172188   23.587603
H   32.450600   48.398220   89.812035
H    3.454515   49.126511   83.083496
H   35.548439   78.959724    2.038163
H   83.519051   13.182693   43.433716
H   60.842392   70.649376   29.708176
H   42.758827   42.393368   44.718971
H   82.253174   82.542885    5.811245
H   77.233902   33.806293    9.753352
H   64.235428   25.880556   93.213875
H   61.476891   12.702915   27.272821
H   74.695107   55.332016   97.724091
H   72.615440   25.714811   89.927185
H   31.793703   38.189911   77.795868
H   26.540813   14.208496   99.114967
H    7.656294   76.319443   93.534958
H   31.442331   90.264175   68.088120
H   17.614836   51.930698   46.845642
H   95.407722   17.828932   56.648552
H   25.885136   81.132523   56.967651
H   49.522427   81.845757   39.022285
H    0.747813   18.412968   14.875984
H   67.184708   48.557091   61.111710
H   36.107086   97.222900   14.797472
H   70.086113   18.144981   40.556980
H    9.181211   49.072777   92.788612
H   92.470085   94.234627   76.104637
H   13.788078    3.890286   20.357704
H   87.423729   96.806419   23.215534
H   65.130585   18.969198    4.672162
H   56.181824   46.910309   41.964687
H   86.155533   74.830032   12.522862
H   84.205841   14.314806   13.487530
H   38.314098   54.864479    9.180369
H   21.686138   97.594276   81.168510
H   68.752861   24.521801   17.583796
H    7.935038   85.628304    6.798976
H   56.704769   82.639145   92.838799
H   12.706108   30.716270    6.481630
H    3.632061   59.697918   91.100243
H   42.919796   51.630211   42.746017
H   16.916445   77.507858   17.836639
H   84.623436   71.138062   10.773455
H   80.475677   68.963226    5.706992
H   66.162025    1.137535   72.411667
H    4.148870    3.620950    4.185883
H   33.403221   45.061729   61.840263
H   95.139099   76.716820   95.309105
H   58.523449   96.782356   61.014793
H   99.889214   79.051422   22.618309
H   94.183548   84.537354   53.773411
H   98.194572   49.076584   11.977655
H   49.293163   29.101065   52.451416
H   24.865131   87.919052   97.095459
H   68.632812   84.119751   84.622284
H   80.839211   21.055260   47.174244
H    7.763528   41.295506   76.138351
H   95.077545    2.116691   71.261002
H   79.195770   40.970589   28.820824
H    2.107006   74.220169   83.872513
H   52.974285   18.897442   60.514381
H   75.535782   70.263084   77.112900
H   54.535889   99.202843   44.503162
H   43.683689   13.164112   99.717354
H   70.624161   40.791256   43.730137
H   25.963625   50.613388   25.804312
H   36.312332   92.440308   41.012321
H   30.054342   96.695961   82.376953
H   67.822746   28.630848   12.214928
H   84.001762   47.455284   90.964775
H   76.688286   16.939432   86.402573
H   77.102798   99.419159   78.152367
H   53.811279   48.816685   36.868992
H   33.078506   37.212502   89.539879
H   39.766022   18.884190   26.390793
H   56.288074   20.280476   30.174179
H   33.047367   87.296028   27.568626
H   92.298180   27.055916    7.726163
H   31.524818   22.409082   58.892586
H   17.211535   60.676033   27.106825
H   70.772758   30.948338   12.396384
H    5.215097   32.729538   94.973427
H   28.589008   81.749352   74.234680
H   66.147354   27.219959   98.120216
H   10.097179   90.769547   10.787369
H   93.756622   61.142334   29.807640
H   90.055717   53.926765   49.898842
H   21.922464    5.704689    8.784849
H    5.078954   73.390663   35.335056
H   65.500458   61.200069   81.509338
