200
TIME:    0.378, STEP:   378
H   13.711665   62.017002   17.699291
H   29.194284   34.892807   95.499428
H   15.245267   75.178391   52.145439
H   22.494289   78.586739   40.891029
H   13.744962   87.226837   51.674393
H   85.129211   49.069458   61.464676
H    5.358596   55.206215   52.322460
H    5.981130   94.845551   20.173916
H   93.032829   85.437363   44.352909
H    6.003350   72.965843   90.629189
H   17.003756   97.542183   97.322601
H   31.348450   45.706261   19.317694
H   14.561213   91.587807   55.635735
H   97.880882   53.789165   48.915646
H   12.959191   73.006920   42.639046
H   25.277950   20.280415   51.346054
H   90.699326   14.181721    8.731934
H   33.285164   89.801086   41.063526
H   69.616928   24.705849   44.515320
H   90.495293   77.809532   32.121159
H   59.741219   83.647095   19.518070
H   86.956795   54.089180   65.256714
H   90.872749   61.538086   45.824974
H   11.531224   89.317345   91.153358
H    9.244664   18.254179   40.486141
H   18.546858   68.460602    2.398733
H    1.568110   61.565769   54.630417
H   97.677277   75.822227    1.094386
H   16.880886   52.335152   37.530296
H   86.813354   24.461187   93.852249
H   13.181322   57.214695   16.363533
H   29.416569   66.740707   97.000694
H   23.788902   11.954988   74.864777
H   91.859261   63.728477   40.702393
H   41.365971   84.098740   33.169392
H   28.553452   46.775490   81.058922
H   90.225311   71.450470   86.990944
H   26.088940   48.325024    8.962696
H   47.962845   41.459034   47.499130
H   88.759308   39.120998   58.305756
H   80.545372   98.777344    6.104799
H   20.208147   40.213112   35.739212
H   74.217117   84.611778   55.452534
H   36.973831   69.936378   23.683863
H   33.492043   80.505524   49.343925
H   39.117798   10.247072   44.188725
H   82.574707   19.451263   99.204918
H   86.756157   65.548500   42.686600
H   92.417297   23.515255   61.265827
H   57.178974   18.424269   99.874008
H   74.925430   68.749428   22.399670
H   15.862783   38.073223   66.508675
H   55.898087   90.472969    9.733613
H   20.352734   85.095901   83.746758
H   71.357651   73.315857   86.310295
H    3.536592   68.950386   83.167084
H    5.036650   17.267677   48.174274
H   68.916367   61.787449    2.812711
H   25.269224   77.143295   10.464171
H   39.911556   95.214272   64.443161
H   49.972580   12.683989   38.204590
H   92.416168   16.751795   50.123775
H   75.249176   28.065237   80.229187
H   27.469646   65.349220    6.748623
H   73.566742   78.136353   23.572649
H   33.326439   21.922533   35.343826
H   81.020363   20.251102   88.686256
H   96.568626   91.763680   90.003716
H   21.431166    7.718120   60.233116
H   44.442585   44.035236   50.975224
H   58.404625   78.978958   76.972656
H   28.262039   20.194479   43.798832
H   81.873672   28.048870   94.874771
H   12.361192    5.931367   64.589882
H   80.825394    3.105479   61.123962
H   56.801872   14.204558   61.975700
H   94.844299   35.087608   70.193581
H   21.443886    8.482843   43.248634
H   12.579731   35.841679   31.882015
H   66.196701   89.897308   87.717072
H   49.225140   27.769709   99.085022
H   32.704365   66.108665   83.591057
H   10.461308   15.180045   86.242012
H   20.173895   66.372139   98.349335
H   33.994011    0.783133   53.871361
H   28.555149   80.945923   24.910103
H   42.040222    3.071671    2.087695
H   74.183876   13.408180   16.647247
H   69.909439   72.393158   77.667847
H   22.752930   92.232689   53.347286
H   35.457901   36.084103   80.140671
H   83.094170   89.746246    1.378990
H   53.815304   15.305714   91.799515
H   53.839703   89.475746   72.893898
H   28.621700   55.059486   73.687325
H   63.557167   30.794693   22.573191
H   81.177574    9.506048    4.272534
H    3.100988   30.583115   49.900166
H   33.890923   68.395630   53.370300
H   69.603889    0.169943   27.284098
H   16.023222   84.241943   75.438026
H   95.703926   78.744385   65.103386
H   26.040007   32.126770   32.431355
H   28.507055   68.194275   95.642487
H   25.155806   25.659187   29.561649
H   92.886375   20.016439   37.429916
H   72.195488   31.810305   55.616989
H   63.938351   39.572876   13.405401
H   76.303627   38.347702    5.805592
H    8.799785   26.136293    6.212672
H   49.010193   94.867577    0.892944
H   91.535141   66.815613   92.083076
H   54.697212   81.876053   90.933678
H   62.756706   16.422237   71.395325
H   59.245064   87.715057   21.933994
H    8.406632    1.760151   85.159927
H   26.901096   10.385888   85.788864
H   40.070965   33.788982   31.220024
H   24.103197   62.894718   76.719254
H   74.424461   49.429134   54.490700
H   41.994881   22.676472   82.997810
H   12.334667   24.210911   52.247452
H   35.563423   16.002377   28.122919
H    2.044082   62.352676   11.821980
H   72.787071    5.535266   88.249001
H   52.778164   66.128204   22.866869
H   91.956429   49.834274   65.725204
H   72.410133   88.652306   36.168087
H   94.165977   47.488392   81.745384
H   74.433990   23.495258   68.852638
H   54.179619   80.258331    8.685101
H   76.403084   87.420090   12.581365
H   91.987129   89.308800   98.401688
H   94.153854   16.541233   51.405876
H   11.243426   98.874878   50.075531
H   58.682556    1.449740   81.648537
H   69.121185   86.916176   62.208549
H   92.395439   59.912136   81.017906
H   49.920319   46.263519   71.517448
H   43.522697    2.471280   91.622986
H   57.449642   59.010429   19.367706
H   50.885361   45.203827   49.463894
H   50.569290   59.301006   94.729568
H   51.389626   21.532270   80.411232
H   46.788586   65.190308   53.581089
H   50.996475   64.353531   23.236862
H   47.995110   96.173454   46.293789
H   38.884270   68.281807   68.033226
H   68.874481   59.030594   96.572586
H   13.860947   90.181435   84.832672
H   71.356026   63.653606   50.302395
H   39.596504    3.291314   43.827721
H   82.586594   26.678539   98.620056
H   13.557907    4.310330   72.542320
H   19.084759   57.523502   63.250061
H   67.598763   43.871082   58.306602
H   60.755779   65.021973   82.389816
H   48.008064   34.445740   12.957191
H    6.065829    1.214352   97.487175
H   62.132504   51.313141   83.536942
H   55.311501   78.802925   79.746681
H   37.124828   22.341148   34.348457
H   71.159569   28.553246   37.174671
H   16.340113   24.233685   65.294373
H   57.632851   26.770941   11.180492
H   14.291308   60.048359   61.547451
H   72.523537   95.334908   53.684643
H   23.752766   37.211273   53.719196
H   95.948097   27.721430   36.531075
H   32.770615    9.418307   88.849335
H   76.728638    7.274959   35.964493
H   41.395607   60.321426   57.881889
H   40.339302   71.524551   86.541092
H   69.526649   71.236946   77.441010
H   65.023865   93.998428   92.742668
H    5.168046   48.406273   23.419142
H   34.000072   57.232071   92.680779
H    2.953059    9.332466   66.644791
H   72.072395   18.171511   67.520813
H   79.735970   55.935417   88.331734
H   78.898331   90.134682   38.510719
H   22.011156   30.274502   74.654083
H   59.281818   90.022568    8.801317
H   54.486015   25.475803   82.267159
H   87.307556   82.348892   77.828293
H    2.149416   37.388229   84.644875
H   36.157227    2.160733    2.322868
H   83.791214   73.070015   30.355209
H    2.621998   61.788799   68.120590
H   52.123055   57.522625   67.446548
H   54.412731   26.458633   78.315987
H   46.521622   88.679474   22.866644
H    7.165797   20.807095   60.967415
H   32.692524   69.038620   36.094402
H   80.158859   48.091389   21.364872
H   75.665054   10.722071   27.675705
H   10.378581   89.322319    8.124616
H   24.898897   94.663490   43.074829
H   10.073049   11.998030   71.845222
H    6.568416   30.317436   95.831543
