100
TIME:    2.297, STEP:  2297
H   61.985504   11.374684   97.043045
H   37.375053   29.284037   22.893972
H   19.238173   39.158966   96.372551
H   81.862152   38.014549   14.256329
H   74.597031   56.872196    3.424316
H   92.398811   98.719582    6.225014
H   32.585041   16.441414   70.081245
H   39.346626   87.321747   97.290489
H   97.163292   65.446198   55.500042
H   12.069853   49.364876   97.636284
H   86.593689   58.667271   18.491152
H   68.172379   38.827271   29.425608
H   97.150734   22.735878   96.826195
H   41.347298   97.995857   32.042904
H    8.439716   64.849915   40.357773
H    9.166779   10.825150   42.370865
H   39.392075   33.901283   82.489578
H   50.230522   82.997429   19.912533
H   81.040596   74.716370   84.377335
H   30.633430   57.032887   72.723091
H   27.969391   27.543713   94.899551
H   82.595978   47.133286   23.667480
H   55.075768   75.940865   66.630371
H    5.625349   64.230621   36.478996
H   47.429558    4.001602   53.509499
H   36.126629   59.163502   73.873528
H   64.007042   46.994328   45.547817
H   38.727737   63.655910   42.698719
H   61.116852   57.493690   48.591423
H   89.071037   33.989456   65.993492
H    6.459978   28.030176   27.650482
H   10.791119   89.049049   86.619286
H   32.154842    0.423345    4.728856
H   75.154762   63.216415   74.982300
H   23.675014   85.284454   64.598183
H   72.269638   64.926872   12.743649
H    0.111629   20.415152   89.460022
H   69.050209   16.912449   84.534325
H   48.116905   31.367605   21.715731
H   46.841412   97.145378   18.756971
H   78.266090   34.999157   96.460861
H   25.179932   14.947562   10.716604
H   31.026243   77.274368   67.387016
H   32.679619   51.269348    5.322837
H   57.407024   41.262318   52.671730
H   48.453098    6.728535   92.496956
H   59.675762   49.756683   47.505859
H   56.362087   19.033110   10.703224
H   32.173393   42.211445   52.847183
H   74.061577   65.710350   23.009686
H   43.369373   47.883217   77.636047
H   16.762644   50.595135   23.267864
H   56.528526   35.327515   69.464745
H   23.500553   69.732018   33.175873
H   57.897072   59.873219   19.896986
H   96.440292   10.117912   14.431503
H   41.871067   23.268303   74.451225
H   55.017426   59.964355   54.390579
H   71.435570   35.823208   35.141129
H    7.441285    4.342116   98.278450
H    4.596809   71.749458   35.303432
H   17.387711    6.563267   91.421921
H   30.036476   50.515343   75.975021
H    0.769703   54.289604   64.780479
H   23.493252   77.386993    9.475957
H   60.236885   28.082253   82.001915
H    3.275508   27.776598   77.961197
H   21.696449   48.905396   76.012482
H   71.385643   84.738564   16.167923
H   76.919983   63.677269   96.896301
H   49.092766   39.112144   34.596973
H   84.568848   75.292068   24.796892
H   57.223099    4.688694    2.849185
H   79.640526    4.020170   66.691017
H   72.917992   31.912058   75.525986
H   79.961586   54.789787   41.370480
H   75.508240   27.457903   31.673594
H   39.897564    0.524915   41.295231
H   71.660812   46.771717   43.306297
H   86.876076   83.854935   23.032478
H   55.832645   53.045177   17.275173
H   13.669256   59.228714   94.703346
H   63.134220   45.596771   48.677738
H    8.182372    8.718843   53.624268
H   40.485092    5.204660   25.083939
H   98.422852   93.426842    1.293780
H   20.566168   36.342316   33.073227
H   92.932327   21.390976   71.859474
H    3.350998   66.278877    9.407379
H   63.253826   14.769539    6.331007
H   18.025360   97.463562   81.970169
H   48.244198   68.259087   77.289742
H   32.663349   96.459763   96.617050
H   69.242317   52.563602   81.693077
H   16.877296   43.978790   68.869408
H   83.644348    5.025812   48.805984
H   80.277451   99.500816    5.086768
H   15.298936   35.795258   19.282696
H   99.289848   46.751759   52.640854
H   81.892776   19.702789   76.451691
