200
TIME:    0.188, STEP:   188
H    7.873283   62.647572   14.450409
H   27.500807   32.119026   87.786186
H   19.227604   66.862122   42.786919
H   16.089661   76.365974   45.859482
H   15.762240   82.411316   54.406136
H   91.310242   54.226357   67.088737
H    2.605857   55.341026   48.644863
H    1.723335   86.640900   26.918110
H   85.316689   88.285797   48.987957
H   12.691708   75.627281   98.123543
H   10.381172   93.483345   91.318420
H   30.562775   40.634888   10.264558
H    9.897899   85.282112   63.422905
H    6.861614   52.987545   39.760067
H   22.132467   71.544289   43.106537
H   30.816090   28.108898   55.444756
H   81.761185    5.283109   17.956730
H   37.796997   80.667252   44.446133
H   63.295292   31.584492   41.718346
H   89.890816   80.418785   39.486500
H   57.461021   74.162460   28.222828
H   91.186684   46.826759   72.578568
H   96.562370   62.919540   50.383919
H    7.508669   87.587502   91.747932
H    0.986272   10.612564   47.265850
H   18.704138   60.028706    8.673986
H   97.888863   57.753361   46.991104
H   93.316925   67.984322    0.594447
H    8.878453   58.110298   38.642853
H   95.399246   19.371332    0.424651
H   13.429382   49.276768   16.131237
H   32.871655   62.287582   92.322884
H   28.379738    7.866615   72.543991
H   98.147560   63.521187   37.381393
H   50.483860   91.949692   34.614628
H   34.759850   51.107574   78.880196
H   84.771973   75.551346   85.564552
H   35.487095   43.410206   17.505463
H   54.994781   48.262661   43.275764
H   90.581436   39.902325   65.727631
H   80.488838    7.652897   99.798264
H   10.751055   44.197296   41.373024
H   77.638138   88.976479   48.397404
H   37.397110   60.708580   16.888571
H   27.000357   74.708633   42.487389
H   41.791557   15.191788   42.122341
H   78.994232   28.759773   95.038811
H   91.381783   65.551399   49.517044
H   85.069351   30.725491   61.128841
H   63.978252   17.566839    7.912410
H   79.445236   71.154289   29.929539
H   23.125925   34.802959   62.423462
H   50.774529   95.910362    7.247910
H   23.180511   81.086349   80.933113
H   79.399948   77.541397   92.455086
H    5.972258   73.631096   76.945465
H    5.578885   16.548683   50.212391
H   66.840561   57.370564    6.241976
H   29.278414   73.472946    5.868806
H   44.305973   96.281166   67.955505
H   50.587929   16.390940   43.755775
H   89.002396   16.301699   48.667667
H   70.014725   24.129251   86.639252
H   22.866127   65.078148    2.506503
H   70.512466   75.303864   15.803232
H   40.779480   14.540920   31.928604
H   88.117531   24.258842   84.760780
H   97.632622   91.331703   86.242043
H   14.672874    5.150542   62.637978
H   45.536297   40.723660   50.985371
H   58.487976   75.692749   71.890411
H   33.601841   25.188662   45.128826
H   75.843399   24.764111    1.236929
H    6.171283   10.107667   59.058910
H   78.511856    0.029821   70.057755
H   51.999397   20.912464   63.217270
H   95.647369   28.014360   72.881111
H   28.481258    5.023046   49.745674
H   11.135220   27.376631   36.090160
H   69.059631   90.956955   96.727692
H   41.161098   30.980902    1.905482
H   24.350014   69.525337   89.464775
H   11.202590   13.095904   91.801170
H   26.369783   60.159218   92.156708
H   40.759949   98.773987   59.255844
H   23.202194   87.593719   28.865295
H   33.524635    2.675753    1.652113
H   75.763924   20.479685    9.480863
H   64.097443   71.921333   76.977089
H   23.704582   83.716377   55.437588
H   43.422646   34.443897   80.985779
H   84.417641   88.079224   97.233200
H   44.789463   17.448563   97.210815
H   62.359638   96.301842   67.676842
H   23.807266   57.629601   65.774040
H   71.425514   26.546684   31.506620
H   78.600212   16.077742   96.089691
H    8.324205   27.630672   48.101231
H   38.196190   70.298935   52.696968
H   66.300285   97.082352   27.237711
H    7.546224   78.988647   66.491188
H   88.638649   75.869858   66.151436
H   22.101484   39.070282   29.776134
H   19.377207   67.843475   88.097397
H   25.407671   28.156097   23.401638
H   85.364479   29.318789   46.325294
H   63.195019   29.451105   56.501236
H   65.057472   32.277840   20.752325
H   71.475060   40.746040   96.618126
H    2.696317   28.785410    5.282763
H   46.510384   96.518654    0.759265
H   83.905975   62.037483   89.918846
H   57.997192   79.671234   95.066444
H   63.400322   20.518402   76.294922
H   65.585548   79.803223   28.595924
H   16.160641    7.318567   76.588531
H   34.712910    7.710488   83.573898
H   41.034939   24.436985   35.017937
H   16.887526   55.761311   86.109665
H   69.410347   45.637020   47.402954
H   40.011848   21.413883   89.223778
H   20.532795   28.711872   46.658577
H   30.982733   24.015682   22.486570
H    4.843444   69.190193   20.142326
H   78.472343   10.239579   94.532951
H   45.817257   60.929562   26.535406
H   96.679176   48.947128   73.063004
H   76.566093   87.162132   34.563396
H   91.827797   54.365948   86.075294
H   65.224777   24.395813   65.615715
H   46.509865   87.042389    1.424144
H   83.695946   85.535629    8.100698
H   92.607552   80.064796   96.988342
H    3.470407   11.669701   49.066971
H    1.857241    2.310350   58.806381
H   63.743057    1.693588   84.447685
H   68.806625   86.432014   52.750008
H   90.774803   65.844337   84.019997
H   44.954041   43.606430   71.562386
H   43.419777   11.583915   96.902374
H   48.043285   64.597931   13.230245
H   59.632156   39.430855   45.034687
H   56.677116   55.803883    1.138155
H   60.095833   28.410072   77.262733
H   37.857693   71.491653   47.368168
H   44.034843   61.079720   32.336632
H   43.501396   97.005516   47.654224
H   44.072334   75.354332   69.123314
H   63.795139   66.963181   98.461395
H    7.802532   88.104935   91.944115
H   78.053108   60.426830   51.736759
H   31.598436    8.548521   49.781891
H   73.760071   33.782955    5.290122
H    8.535276   99.949142   77.237526
H   11.550541   52.505764   59.812370
H   61.958427   43.399967   52.461151
H   58.766949   59.324245   80.140060
H   45.306763   37.494217    8.505878
H   14.761728    1.930266    4.533289
H   64.262581   59.065521   76.245529
H   53.445160   86.521965   84.798485
H   46.045574   23.325779   35.994461
H   62.981014   36.837051   37.253674
H    9.365969   18.652058   73.423645
H   59.452080   20.323912    9.313608
H   11.017783   66.093605   62.586079
H   75.795250   98.408028   51.670444
H   23.586788   28.566673   45.862446
H   93.366386   28.339315   36.979721
H   24.099922   10.852128   90.988922
H   80.358398    5.015419   35.980438
H   47.959328   67.378387   57.298431
H   36.668228   79.688614   91.887161
H   71.863853   75.790802   73.039505
H   73.854736   95.427719    1.676335
H   99.301865   47.379967   23.236856
H   35.951939   51.296745   84.732704
H    1.269140    9.151268   64.215286
H   76.931404   22.588396   69.743027
H   88.774132   53.897301   85.651451
H   82.367188   83.325981   42.928329
H   18.178816   30.042568   67.717819
H   68.029007   90.219711    5.040842
H   50.348656   25.124033   75.277260
H   84.850510   90.589783   78.611069
H   98.171806   35.784988   83.693947
H   29.541456    5.415297   98.113052
H   92.919250   65.021919   23.707050
H    8.124260   60.941517   65.949112
H   48.667969   58.556179   65.046036
H   45.336155   32.744759   79.672798
H   48.079201   83.516052   25.286726
H    2.945432   16.286926   56.615036
H   36.012074   61.455597   32.265324
H   86.679092   56.577984   21.986382
H   75.201187   10.255848   30.278797
H    9.115630   84.141502    1.711636
H   30.420729   98.439659   48.433220
H   12.606742   11.466394   80.342690
H    8.550114   36.754414   98.471237
