100
TIME:    7.122, STEP:  7122
H   35.690018   68.899330   92.625626
H    3.784831   90.794167   27.169739
H    2.191315   86.289497   39.740192
H   82.672012   39.224762   49.782444
H   31.379679   43.617046   72.598755
H   17.574337   93.492302   84.061905
H   79.705490   42.249676   47.402828
H   60.111137    4.746121   54.276176
H   78.555519    1.542037   51.783100
H   80.232460   18.646364   86.572853
H   37.783936   52.811634   53.721848
H   84.014084   80.679779   85.977638
H   89.603340   30.899448   17.342068
H    2.442787   83.123878   99.226448
H   67.109810   33.860680    8.406567
H   15.163227   88.812744   41.853027
H   51.398262   53.034771   21.732111
H   53.368290   48.282440   52.639748
H   56.190197   77.130722   38.576038
H    0.640677   54.566906    1.231516
H   41.647141   47.200218   63.936596
H   45.173416   53.538544   12.774155
H   90.653236   36.699455   28.582354
H   57.322197   22.028048   78.132492
H   74.860909   21.349548   89.137489
H   14.026455   16.144791   20.670649
H   47.941273   46.424583   41.280376
H   31.608364   88.870598    2.186702
H   66.031883   95.255836   20.511152
H   74.082413   14.570560   49.566917
H   96.350075   60.698250   45.909035
H   15.444532   55.735744   39.944832
H   72.021980   47.402641   39.402962
H   79.023018   21.033798   71.712891
H    3.708725   20.434669   58.361092
H   91.741234   43.254669   97.035225
H   62.890549   43.713013   69.651093
H   69.625404   28.616268   25.021370
H   44.451237   26.239527   54.137466
H   92.380745   45.445782   98.378281
H   48.513046    0.558155   10.136185
H    0.010459   69.532074   43.550442
H   72.579193    6.210682   15.904037
H   24.580196   32.185081   77.086540
H   38.875069   50.892963   65.558907
H   86.192833   98.758102   12.095152
H   97.375290   12.156392   93.828239
H   56.622311   68.724274    9.246710
H   73.211555   42.605526   60.376579
H   75.267334   39.134830   85.562019
H   43.012562   82.060196   28.502579
H   51.257961    2.869551    6.521835
H   56.605442   63.304504   89.234108
H   11.764793   91.000259   46.089981
H   73.730576   82.743156   60.926563
H    2.466202    5.042070   50.177109
H   47.754978   84.043983   33.349007
H   95.737228    4.302087   30.109934
H   51.973259   39.696072   64.728859
H   89.040520   75.209290   61.043968
H    8.961508   47.364929   59.107735
H   46.144234   61.651505   73.107269
H   57.574146   21.290577   45.093536
H   32.094288   80.559631   33.777515
H   15.006392   92.021851   58.809925
H   63.831726   88.217705   67.292068
H   16.157068   94.589020   10.912013
H   88.400383   24.852484    6.675384
H   11.860586   38.044830   13.552470
H   74.674034    6.356985   86.736237
H   95.875969   10.820945   76.717476
H   86.781288   15.129622   78.087288
H   42.623856   66.027283   79.141663
H   73.423546   98.668579   79.988770
H    5.545887   38.801945   41.296452
H   94.024239   64.027733   16.709513
H   13.612275    9.372768   17.051035
H   66.584839   85.030434    7.760064
H    3.040251   32.599163   97.139336
H   50.255173   21.050541    7.354547
H   50.239754    2.962703    5.654767
H   75.725258   90.657944   91.177895
H   68.358818   26.223059    8.205936
H   40.131710   21.604149   12.933029
H    5.547285    3.398302   57.354332
H   87.377487   70.658966   36.356613
H   42.817066   85.525047   63.147804
H   70.570366   35.164120   21.733826
H    3.483984   97.631187   69.942024
H   36.658176   16.256695   78.810303
H   15.484333   57.997864   83.865402
H    5.254778   31.121399   69.225761
H   41.987339   41.215206   69.759773
H   35.580437   45.256310    7.024497
H   33.458382   11.783684   79.742645
H   82.169571   14.492127   99.588142
H   97.291832   76.396759   27.596661
H   24.530214   38.855862   35.907799
H   69.437431   67.556725   48.495739
H   81.585716   95.873032   11.654990
