100
TIME:    3.983, STEP:  3983
H   47.967926   56.759918   95.499466
H   90.475136   20.696001   29.246191
H   48.218872   60.456886   76.589012
H   82.145142   68.550529   21.840845
H   59.495682   92.012520   57.708893
H   66.260872   96.893013   73.196465
H   44.220875   30.288822    1.928734
H    6.830353   33.181980   42.488453
H   55.718193    3.344112   49.371937
H   65.995705   73.573341   63.662254
H   29.766068   26.506962   56.086102
H    3.818827   23.337626    9.415037
H   89.903854   20.730465   29.251373
H   57.866005   92.799141   60.349277
H   28.950024   14.249882   59.314754
H   41.377213   63.361320    2.417017
H    3.817913   45.414562   35.976555
H   86.252281    1.007201   61.459583
H    7.304955   45.446106   73.201157
H   85.209435   21.232779   87.513817
H   27.919846   59.697971   49.136612
H   44.234436   49.371475   80.089050
H   32.565239   62.228737   18.391708
H   48.977654   84.451508   11.260288
H   87.129669   70.288452   65.955177
H   28.392870    8.930364   15.844202
H   18.619928   76.909561   78.999123
H   96.468323   42.352676   98.426842
H   97.776855   10.461110   68.893745
H   53.718842   92.260155    0.026154
H   72.812798   79.218498   94.256660
H   17.246077   42.464638   30.537773
H   50.915188   77.067238   56.617050
H   46.393112    8.704567    3.954384
H   81.764191   57.835869   67.263916
H   18.869558   97.370697    6.938344
H   61.819649   58.669907   22.309988
H   99.368706   86.059929    3.511629
H   76.949799   94.635918   58.329872
H   88.039284   39.308167   51.409054
H   63.041870   92.851196   36.183453
H   73.651779   90.616959   89.926422
H   45.548748   87.384811   89.170067
H   25.017187   79.522644   70.170654
H   11.160280   74.741302   96.946350
H   26.701496   38.886433   99.340157
H   72.851852   41.447411   63.700577
H   56.452129   36.393570   15.023354
H   81.456711    2.578414   85.590820
H    9.412951   91.359489    5.089060
H   43.240742   85.110313   95.412933
H   98.699768   94.146439   12.584652
H   91.493340   45.103516   71.544044
H   84.455742   42.220398    7.575743
H   23.661484    7.648462   34.223797
H   98.549850    8.344305   57.036087
H   48.755863   74.618843   34.803978
H   29.473381    0.742092   10.961811
H    4.408331    7.059855    5.705635
H   96.182632   33.934864   50.324593
H   10.951059   93.344749    3.850605
H   57.550163   90.868881   15.135184
H   44.466518   35.490776   60.344200
H   16.544516   63.461037   19.000713
H   90.414375   42.728535   66.488533
H   56.663124   44.266029   81.689850
H   68.004929   86.064911   59.361675
H    5.232666   45.329666   56.613033
H   55.415787   63.593353   10.424902
H   11.082357   48.476646   93.346069
H   95.553413   24.396690   14.368832
H   45.550278   19.337326   48.238857
H   47.292755   21.291279   59.626862
H   42.530346   97.326912   66.497734
H   54.206638   34.317234    3.335984
H   19.817003   62.847115   27.924515
H   28.585196   81.326950   61.490467
H   19.108913   90.281914   34.406212
H   52.510796   41.819401   62.125099
H    4.191303   92.030952   77.782249
H   88.816971   70.487625   18.043550
H   40.174324   70.239578   53.721680
H   69.802895   73.741364    9.261028
H   24.174593   52.993111   99.632126
H   58.390411   99.744621   61.645233
H   59.626110   55.358307   18.375000
H   33.170296   13.756386   13.468388
H   20.068838   86.405754   54.321228
H   38.343124   72.405220   95.614998
H   14.187562   45.405197   66.597733
H   87.023346   88.502113   17.575480
H   72.998093   95.044487    9.420652
H   40.771446   47.027596   27.016031
H   32.199894   54.832130   95.372139
H   87.726067   92.956261    7.612607
H   22.901093   38.446358   61.721809
H   46.450317   96.256996    8.122829
H   21.486479   50.150543   92.302269
H   18.972282   54.019444   11.418312
H   86.610527   76.421791   14.044717
