100
TIME:    0.981, STEP:   981
H   50.981117   32.058540   98.247879
H   73.981926   57.934734   39.881374
H   96.619385   44.480770   11.821320
H   81.641266   92.232079   86.391472
H   86.384323   51.389000   39.105659
H   12.804218    0.145970   75.897789
H    1.557067   27.579283   67.168251
H   42.781631   73.470291   18.121422
H   29.513145   91.974152   38.336601
H   48.031364   30.469471   46.106064
H    9.004791    5.715250   45.254364
H   18.397511   72.863213   23.100157
H   80.860489    2.355386   27.625753
H    6.508488    2.052619   31.894711
H   92.433342   82.397705    3.615721
H   62.080399   25.931316   51.608871
H   45.195595   46.872086   62.672905
H   22.107689   46.994705   65.536911
H   60.540031   19.506800   15.046228
H   66.094612   84.964264   83.113838
H    6.062638   58.556557   30.618557
H   56.412525   45.394745   35.725193
H   72.646263   86.643806    4.281723
H   27.896027   48.447300   34.217125
H   94.498405    8.373821   43.800545
H   42.160839   98.379608   97.224274
H   77.486588    1.697126   19.433043
H   49.766571    2.229012   99.199081
H   32.502045   38.095676   10.800297
H   38.608578   66.560135   61.375210
H   54.691502   10.014582   31.783543
H   27.697973   25.408768    8.447960
H   39.458111   96.708107   86.173180
H   19.551674   83.819984   30.422575
H   56.387535   84.763985   84.464645
H   57.849182   61.547375   17.268850
H   73.889091   68.609718   85.764351
H   23.444862   40.999088   91.668297
H    6.617398   59.566536   48.103195
H   70.793449   20.345053   15.216738
H   68.199799   89.842400   65.456467
H   43.454491   55.887161   48.889103
H   19.690763   69.382706   72.331001
H   16.715910   29.211481   76.650520
H   71.560219   93.186264   40.055313
H   65.422493   81.645805   87.165291
H   46.438526   78.660736   36.005806
H   56.291805    5.483747   29.276625
H   93.707207   51.202095    5.340640
H   46.464497   45.680843   15.052963
H   43.469776   74.934212   63.760380
H   52.807350   72.710190    9.660233
H   29.228998   27.696899   45.895332
H   53.972813   91.198143   75.105606
H   62.663628   44.504772    8.730556
H   94.793686   11.500961   59.231247
H   58.441544   61.240654   49.288750
H   53.011169   84.244148   88.286575
H   67.645287   80.217911   36.171337
H   94.283432    3.189841   35.707603
H   21.582968   32.950272   37.908989
H   64.093536   18.814346   50.968887
H   40.773636   40.257072   66.257668
H   10.402346   47.130882    0.503952
H   71.261299   82.493553   86.919945
H   41.080849   93.504738    4.190107
H    8.860891   82.277771   14.424892
H   12.601521   73.641403   13.100074
H    5.793951   79.297928   98.704872
H   50.258163   97.484032   99.667419
H   90.880424   28.654192   50.381870
H   93.079422   18.968224   28.445444
H   43.029144   69.780739   36.594555
H    8.599008   87.300125   44.904854
H    9.470508   30.039545   75.764214
H   48.851902   70.446678   29.921150
H   56.024105   41.519890    8.392530
H   78.069489   86.575798   68.618408
H    8.573328   50.628757   28.626957
H   51.415482   55.528038   36.407074
H   30.079319   39.430553   38.620220
H   14.927952   50.634232    4.746614
H   79.867073   23.630545   23.335148
H   17.653257   96.107033   73.826546
H    4.562409   87.521744   52.655479
H   28.713535   45.088993    9.906929
H   32.673500   32.026237   70.320938
H   71.747330   26.752808   85.543999
H   76.040962   39.551186   20.174046
H   79.603561   68.917694   59.283138
H   64.169106   26.403357   54.178661
H   50.871021   69.286690   52.213837
H   48.226448   57.023308   94.807396
H   42.045486   72.738655   92.962593
H   39.631916   61.858612   38.628075
H   74.948151   56.992241   16.779259
H   84.735397   23.977812   80.770737
H   10.467050   24.590302   40.340202
H   61.979454   41.078999   62.876484
H    0.164842   53.506596    3.201323
