100
TIME:    3.237, STEP:  3237
H   98.417633   25.171837   96.182449
H   11.226959   80.250336   82.189011
H   35.395859    6.787108   85.342583
H   82.019928   99.284782   62.733768
H   66.177536   32.217327   77.936584
H   77.826057   97.701210   99.316429
H   83.318794   79.915718   43.590553
H   65.464478   68.642685   10.982782
H   74.056297   75.069000   96.328819
H   86.382759   62.861885   34.447639
H   99.157181   96.490448   27.945581
H   32.293541   85.944885   62.515785
H   37.356873   65.864365    3.397944
H   94.804024   95.098518    3.576286
H   19.874882   80.885574   95.172127
H   71.371567   28.609344   64.342140
H   63.806862   96.073807   68.065231
H   70.316002   37.285454   87.322449
H   95.685066   14.148395   33.899822
H    5.310402   37.074238   36.722618
H   72.188553   33.963913   69.382889
H   72.714691   48.381149   43.617813
H   42.525414   68.295906   39.736755
H   18.289169   75.504425   66.666924
H   13.810777   29.449036   60.445778
H   31.816324   31.158175   85.767052
H   82.949005    7.917953   64.201149
H   59.412334    7.531906   73.771141
H   81.556000   42.777695    4.158169
H   25.113907   10.724278   40.720428
H   43.451908   12.323913   53.277809
H   70.143379   63.073662   99.598778
H   98.366791   31.647442   89.411476
H   14.871934   77.071053   35.380554
H    0.307223   14.227891   21.839417
H   53.998928   38.768269    9.512830
H   90.269478   85.989243   63.528255
H   30.200554   99.708214   50.866741
H    8.436614   10.889013   30.622522
H   58.303440    9.145789   92.714577
H   14.025904   67.250702   18.608015
H   40.698051   57.138222   54.877991
H   39.123013   82.911270   35.285709
H   72.654861   67.024048   97.230919
H   75.869225    4.177242   33.110165
H   36.325871   24.657612   96.312263
H   67.023727    0.876118   56.534943
H   56.412289   28.711226   68.865150
H   59.647911   64.360039   15.348287
H   93.769218   80.010582   57.263340
H   43.297657   57.132156   87.547241
H   62.444736   63.370781   61.560253
H   76.023766   40.777954   14.868961
H    1.734653   54.394577   74.656586
H   83.058273   42.266724   27.879591
H   97.616440    9.129736   82.431686
H    1.464517   96.144203   63.853081
H   85.022697   71.192856   30.178883
H   45.571510   75.539703   62.978176
H   45.409561   76.595047   71.542610
H   63.893166   28.037098   62.012630
H   84.027153   97.812546   48.891602
H   93.820076   86.395805   11.499680
H   65.319756   59.402977   39.256863
H   60.806431    2.309628   97.016426
H    2.491259   81.352028   37.580505
H   27.858299   60.271725   23.344999
H   56.764061    2.664094   20.949919
H   18.233032   17.196144   57.214787
H   95.967834   10.953806   94.916931
H   19.242905   75.154167   23.318760
H    7.062175   44.095474   93.619568
H   95.932556   58.189457   78.751701
H   58.955791   44.536011   10.824013
H   18.240782   33.252918   46.784824
H    2.179874   15.033594   78.119934
H   60.854481   45.985367   48.297504
H   84.060471   39.061092   93.206635
H   16.739538   44.010639   53.798393
H   40.776833   32.659443   42.050705
H   74.223892   62.769909   73.456787
H   84.200134   65.367630   16.101545
H   22.603750   61.288300   38.208073
H   72.849731   89.155853   67.766022
H   94.713745   46.408970   33.961494
H   76.793213   27.954018   66.570297
H   83.346626   67.996651   77.895920
H    8.062559   46.132248   62.078781
H   22.860489   13.941483    1.716874
H   80.144562   76.097366   39.932365
H   56.493988   48.219707    1.821279
H   17.797621   38.946243   95.204475
H   92.952682   24.642813   69.326622
H   60.097019    9.580200   45.072556
H    0.623183   59.779819   90.470360
H   61.284515   67.905708    0.253463
H    5.664821   53.445324   51.026894
H   18.748854   43.798798    4.241602
H   54.510185   50.803730   73.904701
H   40.273022   95.568092   85.909241
