100
TIME:    9.494, STEP:  9494
H   75.281647   51.376472   90.453995
H   38.274429   19.329395   76.732780
H   42.964008   56.940147   11.894894
H   83.070145   41.498405   19.763685
H   10.124842   33.742950    8.285082
H   80.794678   90.922539   18.968155
H   55.388302    2.417357   32.896343
H   73.676620    9.954155   36.486336
H   20.247231   73.482529    2.473311
H   15.443159   52.704777   79.449226
H   17.146271   48.252686   25.237108
H   93.480476   99.575966   17.135754
H   38.348862   87.329430   81.619766
H   84.995712   75.812721   79.737953
H   95.920113   21.981941   94.334740
H   19.789978   81.348923   44.956116
H   60.656013    9.925865   37.664627
H    4.090544   32.860741   70.416092
H   93.140289   76.639069   63.540623
H   36.730244    4.198172   62.728264
H    0.888829   11.059790   99.560120
H   72.579376   56.687408   10.776443
H   58.983620   17.414980   60.716141
H   36.928257   50.404022    1.966672
H   90.025131   33.238937    6.652069
H    2.840249   46.220383   97.453926
H   43.400909   47.823399   88.341110
H   31.465811   99.587540   80.594200
H   17.609249   10.462158    8.386024
H   65.035118   55.863022   38.133949
H   89.704048   73.400497   58.244034
H   65.214279   90.203247   20.356911
H   39.102203   73.856293   53.091454
H   79.245956    3.654297   71.784431
H   44.676399   40.840950    2.674553
H   97.935043   29.043825   89.579292
H   90.397186   56.844490   56.555378
H   71.585838   85.209480   92.406898
H   44.328037   74.559288   24.273087
H   68.963943   23.386253   85.003067
H   86.404160   81.944183   66.019005
H    0.111126   78.833893   64.644707
H   92.992523   20.440800   87.234306
H   73.126137   72.005775    9.007075
H   33.122009   57.320690   68.541336
H   55.577820   43.994335   21.731764
H   15.917451   41.156216   16.603910
H   56.767086   93.155121   56.012089
H   42.548111   46.156651   65.756653
H   25.062407   75.243828   19.712078
H   44.145710   53.157394   51.520309
H   66.537460   82.766586   50.814156
H    5.797129   77.058167   51.476685
H   56.828781   52.303566   50.759834
H   84.868202   90.613464   81.089294
H    5.420525    2.546957   69.428619
H   98.131210   15.601391   58.945869
H   19.113150   80.295784   69.011375
H   39.050976   39.925720   82.631248
H   32.512714   57.529598   93.578651
H   58.592731   37.056301   74.173882
H   61.957298   39.573257   65.783775
H   18.607918   59.429588   82.438385
H   94.975586   93.480835   69.380020
H    9.155288    2.572289   79.703346
H   18.118118   70.298759    7.543956
H   25.847378   76.593018   25.432903
H   24.550400   60.509529   20.070709
H   30.081629   67.608047   64.787170
H   22.843185   25.503702   81.707001
H   20.547508   49.426624   48.269112
H   91.459511   36.362694   51.951420
H   87.965515   48.697361   18.322277
H   21.210659   48.544262   39.051857
H   19.806211   42.294651   21.142920
H   50.103630   16.048706   57.102547
H   29.040836    4.069711   59.123169
H   78.017418   29.938988   38.768524
H   16.786093   25.631847   23.610483
H   33.930138   91.835640    3.004717
H   96.676430   27.502146   47.426872
H   53.717285    6.046545   92.735939
H   18.389608   65.891518   34.103748
H    3.321610   24.581532   96.287743
H   90.052719   55.012314   27.416899
H   32.786816   57.786240    1.075250
H    1.237641   13.060950   76.253700
H    8.718031   45.357460   97.142151
H   52.712650   65.561516   50.542122
H   26.941462   18.666656   63.601677
H   12.556776   86.078537   33.958031
H   80.758759    9.519209   14.426408
H   94.037323   12.381201   53.190178
H   63.526222   89.063828   68.954353
H   92.444107   99.314125   34.246590
H   78.087051   20.824385   77.071381
H    9.013534   12.519809   91.179153
H   19.951693   56.222301   88.284264
H   56.440727   77.799583   49.816204
H   28.920418   35.003605   83.152924
