100
TIME:    4.820, STEP:  4820
H   91.365883   80.002815   94.733170
H   67.358650   66.054108   82.022583
H   62.606087   20.673939   66.767647
H   82.285629   34.067192   75.963264
H   51.998749   59.101761   35.013748
H   53.279644   95.986229   56.087582
H    0.354921   86.806992   67.383286
H   41.043800    5.593863   65.638496
H   35.143135   22.870163   96.684532
H   43.121758   85.591423   96.434265
H   51.910370   60.185688   75.462143
H   71.876305   65.292351   49.835915
H   36.492874   70.115242   46.082520
H   16.423344   90.219276   24.044024
H   39.129951   39.485291   19.078835
H    7.721732   90.154129   32.939392
H   36.511482    0.777263   12.171965
H    4.140463   60.291439   32.439404
H   20.341530   80.558624   17.299120
H   62.655159    3.457895   44.500618
H   78.251091   76.371490   26.421524
H   24.478439   50.482605    8.810715
H   21.390083   55.421471   94.443558
H   71.211258   94.489471   49.098396
H   57.193024    3.908630   72.136635
H   24.574041   84.165466   37.167286
H   46.445183   42.115688   95.602211
H   25.844513   81.421021   26.095240
H   15.977712   86.400291   29.327526
H   85.813889   71.544609   66.564766
H    5.751567   54.273640   28.035881
H   70.094978   19.341644   53.052498
H    9.871138   15.828230   32.020622
H   81.757690   31.998413   68.692284
H   60.959244   94.564926   18.233124
H   91.632309   62.951771    4.273555
H   42.099640   28.017635   88.262558
H   64.770424   70.746773   62.574200
H   41.619488   76.398064   77.218597
H    9.203672   60.951889   17.261522
H    5.839275   21.569929   55.902813
H   98.426323   28.181585   29.247362
H   52.758320   92.404053   49.626984
H   71.569412   93.546387   52.009773
H   38.556431   41.718239   68.570946
H   15.903088   54.850941    2.741670
H   79.390915   86.965416   71.734154
H   56.496830   45.014404   66.812218
H    5.925744   33.257198   52.203583
H   26.967525    4.094831   46.546440
H   43.176884    4.303265    4.237351
H   39.374825   16.479029   57.639091
H    8.852666   49.956726   22.930510
H   65.068443   28.561165   44.509117
H   57.019531   81.003670   41.343967
H   99.597122    7.463551   28.542633
H    1.819888   50.467735   14.409674
H   67.148331   21.698183   89.402451
H   70.418999   42.426300   41.449150
H   40.948101   98.268433   26.518318
H   63.750000   54.418468   38.590477
H   27.843855   83.078201   77.265320
H    1.289666   78.374802    2.948593
H   74.021156   68.019745   96.274689
H   23.635775   75.879303   44.434956
H    5.245667    2.656633   31.179342
H    0.850406   15.003102   99.771042
H   47.415459   93.197647   96.626472
H   97.129166    3.451862   57.931877
H   28.039858   90.574219   91.583588
H   68.975700   67.447174    4.327448
H   76.535553   91.558380    9.519191
H   92.717896   79.889015   38.164177
H   24.101711   44.360691   16.765488
H   94.563362   35.511379   66.786713
H   39.606606   16.489100   71.603683
H    4.579308    8.780384   76.292763
H   58.432690   35.552258   80.630745
H   92.650124   39.360867   71.462425
H   63.143280   46.446629    5.673963
H    5.191919   79.146774   68.069038
H    2.974979   75.705826   83.731834
H   22.750086   87.726746   88.976105
H   81.757782   24.617025   23.184700
H   17.635088   47.391777   80.507515
H   40.360142   86.101357   76.498581
H   89.071617   52.899658   53.379761
H   33.540054   19.393736   45.617378
H   55.712509   25.802053   88.769417
H   40.185917   10.966560   96.521606
H   21.276970   33.698223   35.251385
H   34.930088   57.989243   25.369192
H   94.424965   72.145027   91.742538
H   13.098599    5.600827   51.805706
H   73.255836   17.983009   26.844151
H   92.033798    5.395561   18.489922
H   80.013573   44.290478   59.986374
H   24.558050   57.277100   78.904854
H   79.099487   57.627422   41.311859
H   38.599369   54.942646   33.414310
