100
TIME:    4.471, STEP:  4471
H   14.966934   12.007805   95.052689
H   76.997475   47.141533   60.017891
H   56.607117   95.566139   70.862816
H   82.227051   48.445549   95.091805
H   55.124710   31.127871   44.476837
H   58.692829   96.364326   21.524012
H   18.645622   63.242374   40.091030
H   68.474510   75.399719   97.680931
H   43.722221   56.424988   18.653082
H   52.659401   80.580299   82.769501
H   84.373505   46.142826    9.080494
H   85.194923   47.798683   74.678520
H   58.763351   91.219475   80.760986
H   33.702797   91.294991   97.484283
H   34.885674   70.659698   35.855221
H   21.755268   20.679192   61.909119
H   64.575905   77.692078   80.401115
H   96.678490   77.273293   44.538525
H   14.905712   65.919327   98.913193
H   72.059288   10.869406   20.739054
H   98.961250   11.114658   35.893387
H   91.019470   50.019302   38.531311
H   26.049736   58.259865    4.428826
H    3.637155   90.304291   75.018250
H   69.675568   31.586967   69.559181
H   26.164980   94.480606   69.985039
H   76.540108   56.624516   88.679298
H   55.291134   65.130875   14.558022
H    8.388469   54.735958   45.825142
H   72.431366   80.182274   38.819862
H   92.016777   22.979027   55.647652
H   48.058819   28.983131   85.361198
H   85.288673   41.362282    0.579942
H   67.011887   63.982269   83.395485
H   69.634186   20.946953   96.982056
H   61.293980   35.616917    5.371569
H    8.626429   40.798813   60.762623
H   79.196709   77.131828   37.947269
H   56.351978   84.002617   11.039316
H   42.075119   93.622963   89.803345
H   29.690071    9.595952   47.680523
H   29.793137   12.518254   12.852901
H   49.752178   90.311203   24.419195
H   93.855865   87.698669   17.885782
H   68.828621   55.486847   38.706562
H   20.405659   48.194294    1.322932
H   76.664352   67.985985   68.384529
H   56.478191   41.419815   45.218056
H   95.723801   62.160358   66.126221
H   19.647877   98.783440   70.955788
H   43.203510   37.997643    0.558222
H   22.414442   48.864307   80.549347
H    1.613324   47.933105   43.200733
H   73.152275   34.256592   29.108551
H   84.807037   50.416225   38.375103
H   99.160446    7.830665   40.423416
H   79.693359   60.537910   81.216698
H   93.135880   54.656990   98.391586
H   42.894478   27.680107   68.243065
H   63.977436   71.444809   36.444710
H   41.735138   70.648460   65.800362
H   40.230095   86.326645   93.054886
H   77.597252    2.189691   26.880577
H   50.055679   66.118607    5.750042
H    9.783292    3.752234   11.933722
H   26.684364   20.006020   10.543880
H   28.852190    2.937791   82.921738
H   71.523170   73.238358   79.942253
H   79.736679   28.528778   79.819672
H   20.969168   73.021973   92.318481
H   80.057686   91.192764    8.514187
H    5.313235    3.141048   83.967796
H   15.473795   97.153694   47.113373
H   31.785351   66.447151   37.501884
H   77.735359   35.013462   40.330532
H   31.355028   94.121666   95.088333
H   72.893448   39.029827   70.120720
H   42.036037   58.373905   61.358055
H   75.912651   40.385990   67.569618
H   80.258850   65.455147   35.740501
H   98.363113   75.536209   47.209774
H   76.790154   73.426590   12.915144
H    0.674088   81.890198   55.740139
H   57.746620   94.751900   55.059387
H   34.629303   69.222282   14.338992
H   48.393383   73.283318   52.263062
H   65.762703   78.274796   36.738144
H   27.922812   47.335075   49.246582
H   48.470078   45.233711   91.623787
H   71.042862   25.326279   84.044388
H    6.994444   14.853374   27.881144
H    9.105935   31.742638   18.719595
H   72.053307   61.670723   64.753830
H   79.367203   84.432281   28.275579
H   79.289421   49.245285   18.825554
H   63.207855   19.176601   36.516121
H    7.715690   24.261959   80.057495
H   23.277311   54.305573   84.491112
H   95.725128   56.123020   70.544594
H   16.922663   63.897167   67.035461
