100
TIME:    9.056, STEP:  9056
H    4.902087   91.543404   90.854996
H   50.371292   95.594528   49.115376
H   35.435215   25.428501   17.036728
H   82.996628   59.543449   43.772766
H   14.049639   98.635590   20.160267
H   87.584961   91.397057   75.592468
H   78.344353   72.843285   98.644157
H    8.102554   72.060287   76.702339
H   31.014107   15.594693   30.043871
H   27.408026   46.415745   62.299751
H   57.887970   30.628822   67.428825
H   10.197571   77.621162   48.312782
H   66.278580   13.840958   25.147388
H    6.682920   77.162758   46.406322
H   90.600166   61.106270   15.398369
H   37.401764   19.658226   81.313538
H   95.877266   80.954491   97.791756
H   94.721878   54.173943   85.600662
H   86.316589   58.265499   40.466358
H   48.529697   13.499723   32.907158
H   26.880836   54.664597   11.449211
H   30.587885   56.105957   48.076218
H   64.831551   20.975534   73.247421
H   77.625397   45.164276   34.496616
H    5.690558   67.975266    3.418961
H    4.906357   59.132614   38.672047
H   81.170341   66.031815   79.652756
H   68.421814   79.143173   66.118065
H    8.084783   70.723198   29.089371
H   48.239861   66.703415    3.315023
H   72.467690   34.124996   92.897202
H   37.558582    2.306239   60.904793
H    8.248730    5.902709   13.632955
H   60.739761   43.794281   90.237160
H   55.576942   74.003731   76.027771
H   59.860004   94.736755   90.956062
H   48.386894   72.884529   22.042562
H   89.691032   93.222816   61.496674
H   62.817524   84.103111   66.718735
H   10.219828   64.391914   50.542412
H   16.338079   66.913330   55.699917
H   37.023621   77.116272   42.285465
H   89.223114   17.812572   55.596218
H    1.089395   64.654091   66.180855
H   71.114136   74.598442   31.058222
H   61.228592   35.640148   19.952322
H   12.493070   17.334444   12.397697
H   56.740353   88.643860   28.911106
H   29.746155   82.432228   83.226929
H   15.869448   68.573845   50.337856
H   42.879765   95.344749   48.893066
H   45.250988   23.409065   79.565926
H   96.712929   74.518494   76.915054
H   66.971741   59.451408   31.431637
H   19.742767   52.229965   77.366669
H    4.874996    3.007690   84.339172
H   70.361893   28.239632   17.288549
H   51.727234   21.659838   80.292870
H    4.506031   21.417139   16.255987
H   61.414860   23.862225    6.036400
H   30.960485   57.423809    8.319832
H   77.502769   43.650101   85.599907
H   88.872559   89.317528   12.473358
H   64.900513   91.094879   81.269699
H   91.770981   37.556217   38.914860
H   45.024422   92.073112   81.645760
H   60.988724   61.449108    4.285187
H   54.805923   35.460335   99.131775
H    8.250763   99.079941   92.255737
H   13.947646    3.504982   82.635986
H   34.457523   79.229317   53.522224
H   27.527922   50.905663   19.847317
H   16.523819   70.362419   29.553646
H   30.851391   76.264931   65.076820
H   98.708435   41.649708   87.933731
H   39.747780   87.977654   86.575333
H   89.260574   41.980968   51.353775
H   57.440449   58.577141   14.578139
H   95.782478   26.918392   18.721613
H   55.410423   15.695883   40.738670
H   88.101692   22.970835   21.248192
H   20.851345    3.203197   29.379328
H   90.685905   58.566563   92.390312
H   73.186577   87.100563   36.291492
H   11.379288   82.412949   69.876038
H   42.868649   41.696075   70.659302
H   71.984612   44.907188   55.368233
H    1.674305   80.404945    1.681352
H   43.623295   89.949059   54.124397
H   65.667770   36.688309   47.945930
H   94.631493   62.426388   24.708275
H   48.351192   76.577301    6.082150
H   65.960571   99.238640   19.318964
H   22.492857   62.589954   37.429699
H    0.016343   38.548595   24.182764
H   41.910080   38.119812   99.694519
H   43.779381   87.384148   16.369255
H   20.797136   34.551540   97.079552
H   77.306145   75.908195   86.502403
H    1.715405   46.241657   25.346622
