100
TIME:    8.655, STEP:  8655
H   32.019279   28.316309   91.222122
H   61.446274   73.866760   23.830036
H   28.542414   96.579803   21.743595
H   82.929321   76.064140   65.754219
H   17.642889   66.493668   31.031799
H   93.801636   91.831490   35.879456
H   99.362343   45.765648   67.285439
H   39.620361   37.369183   13.519851
H   40.871452   54.149734   55.286755
H   38.361275   40.657978   46.598976
H   95.188019   14.495072    6.056461
H   25.503685   57.520992   76.856865
H   91.848938   38.111145   64.996246
H   26.537172   78.398750   15.888935
H   85.729622   96.925575   34.681686
H   53.524734   54.731041   14.600092
H   28.123512   54.430706   61.287148
H   86.143890   73.686714   99.502518
H   80.069321   41.441929   19.341290
H   59.332394   22.015528    5.605222
H   50.676750   94.584198   22.333055
H   92.143623   55.573624   82.225098
H   70.185478   24.235312   84.720123
H   14.883249   40.367157   64.279724
H   20.031986   99.774536    0.458862
H    6.797823   70.954086   76.408585
H   15.748247   82.699356   71.698349
H    2.258480   60.425846   52.862228
H   99.365089   34.340969   48.045097
H   32.863380   76.628067   71.436340
H   56.685955   98.166771   24.623024
H   12.239208   13.384848   98.027397
H   80.003799   35.240898   77.507706
H   43.796875   80.543640    7.130574
H   65.556664    4.365059   51.630665
H   25.001654   63.329018   92.216530
H    9.926461   87.569588   90.445580
H    6.265957    0.559416   33.200401
H   79.742271   92.840721    5.578869
H   47.988846    1.930711   18.991583
H   43.743195   53.154617   46.252529
H   70.817612   75.543747   21.814342
H   85.772125   15.406553   26.632999
H   26.693325   57.920677   26.974636
H    5.899045   90.415474   96.742485
H   66.403435   27.992481   18.323198
H    9.357963   95.525887    8.546694
H   56.715878   84.513687    4.099842
H   18.025642   15.643562   99.221405
H    7.452309   62.468075   78.375572
H   42.907299   34.059502   44.664993
H   25.762201   60.620037    5.889126
H   88.397514   72.193359    0.203121
H   76.260040   65.994507   13.737670
H   51.671120   17.087435   73.958511
H    4.375551    3.429503   97.990158
H   44.940681   39.810234   79.149925
H   81.586853   59.529350   90.621361
H   72.878273    4.472643   47.041817
H   87.878258   93.039673   17.441795
H    5.664255   76.072754   39.583820
H   91.735039   47.382553    3.742517
H   61.649868   16.681181   39.971130
H   37.363071   88.910477   92.154999
H   75.856049   69.584412    1.570965
H   69.658607   12.007623   57.935505
H   93.161240   47.587025   84.925095
H   82.505615   12.525872   79.961655
H   88.265778   27.893227   17.405556
H    5.803454   83.362381   83.486496
H   47.193752    6.513415   58.331581
H   60.548096   64.220116   90.454086
H   42.669342   90.199486   39.836246
H   39.677723    1.645492   88.903328
H   79.391464   41.059246   57.529545
H   30.266741   62.278595   13.558066
H   52.841629   76.688599   44.240700
H   38.603802   84.796089   92.430054
H   76.551170   28.096256   14.246029
H   75.076164   37.541039   75.285271
H   80.251305   18.822306   97.280472
H   90.760574    0.600041   62.925629
H   65.323586   51.860386   54.202259
H   45.599060   52.786476   72.916161
H   30.904297    7.499210    8.748430
H   52.098820   26.965649   42.812759
H   45.202732   74.063148   36.247063
H   95.225243   12.492119    5.838960
H   35.301762   12.276012   57.404060
H    1.120019   53.187584   33.612701
H   78.220940   40.775105   16.239891
H   18.681253   46.417862   98.442024
H   40.255604   87.209129   88.309021
H   83.737503   38.261707   10.391899
H    6.950089   74.467972   14.969334
H    8.789153   53.955200   20.407158
H   75.609245   64.371437   39.431953
H   21.571161   14.710084    5.130880
H   96.408958   74.176582   20.090168
H   76.806030   56.530376   63.977505
