100
TIME:    5.093, STEP:  5093
H   72.903725   54.967262   94.483231
H   59.818825   80.846329   99.235046
H   67.300156   40.314377   63.563976
H   82.331451   22.819088   60.999832
H   49.553513   80.983917   27.612007
H   49.045261   95.690468   83.123253
H   86.045952    5.240502   88.732239
H   19.586540   29.211216   40.571835
H   28.432274   96.622101   79.501228
H   35.661079   89.511299    7.124569
H   26.516571   71.170502   49.165577
H   61.457504   78.976509   30.403246
H   19.072128   53.606773   18.955811
H    2.906359   89.377815   44.820198
H   42.449974   15.100282    5.955640
H   96.744644   66.276627   10.277391
H   14.558475   18.833691   37.024231
H    9.978272   47.009266   22.976042
H   24.593616   92.009995   31.681025
H   55.300705   97.659950   63.087746
H   62.050880   49.193657   19.011875
H   50.651215   50.845016   85.562302
H   17.745140   53.201180   86.632965
H   45.845127   97.755341   28.822262
H   47.428741   82.259369   74.152809
H   23.329554   76.096603   11.495638
H   22.903418   30.766491    1.017896
H    2.809812   94.163742   35.120117
H   21.913765   11.168991   16.423386
H   96.282166   64.787926   88.267799
H   16.496315   78.754333    6.436989
H   87.332436   11.799445   27.779503
H   29.100983   95.854668   56.614616
H   93.292374    6.979700   57.190926
H   54.173401   73.928299   34.856148
H   15.363511   84.334053    3.414789
H   68.283173   18.019035    9.773753
H   53.487621   65.752159   81.840172
H   30.095219   70.449516   50.762558
H   83.489510   35.393547   38.740978
H   87.181580   30.936392   62.334576
H   73.890648   40.434517   42.071316
H   55.109829   94.041153   69.345650
H   54.137348   98.128601   78.702316
H   14.876043   30.947952   91.931908
H   12.380510   60.058002    3.851425
H   81.523727    1.811893   74.354347
H   56.511410   47.826218   83.703926
H   13.905113   10.648136   41.312492
H   32.693211    8.250067   27.453186
H   43.156055   77.947052    7.115294
H   52.642418   91.146957   39.716385
H   14.515346   51.539673    7.075006
H   58.746719   24.106003   56.556175
H   35.283173    4.930665   43.666317
H   99.938705    7.176381   19.249069
H   19.126503   42.590492   40.374199
H   46.819962   95.916344   82.370834
H   91.951241   53.960983   20.490257
H   22.933750   19.252636   18.753548
H   80.970795   41.723652   17.306091
H   18.155596   80.537155   64.914169
H   19.823702   59.746017   84.228149
H   92.766579   69.506882   88.863998
H   34.471909   54.075344   69.857918
H   88.475060   89.085045   47.321236
H   78.947388   24.441368   12.952061
H   28.557564    8.810988    9.677451
H   10.735529   83.835838   40.808975
H   33.570503    4.304614   91.008728
H   60.306984   48.872543    1.052368
H   54.025307   82.498093   29.507019
H   74.918076   66.383980   31.163803
H   18.092762   27.083363    0.545372
H    7.726051   35.900867   87.481659
H   46.061279   33.985985   53.234394
H   29.365999   85.119087   81.120750
H   71.258728   17.701202   95.706230
H    5.742004   38.558979   74.507515
H   49.754883   31.577374   82.154785
H   10.533981   81.971085   84.385887
H   23.459236   77.488724   60.904076
H   40.018784   92.292297   14.974826
H    0.540668   47.978317   98.250793
H    4.341844   30.314697   54.043144
H   34.076260   96.128075   95.456451
H    7.304693   33.050339   66.397415
H   37.934814   97.537155   42.778488
H   61.377792   10.602455   86.536629
H   16.048750   99.733932    6.280878
H   32.449242   48.438374   41.016644
H   55.129322   78.521729   30.570005
H   11.924516   80.337257   12.854084
H   39.485847   22.160364   70.212334
H   68.536156   93.529198   33.116764
H   14.582549   94.615204    4.388769
H   58.343864   59.957485   44.286041
H   25.559889   59.601532   74.535088
H   66.094330   58.804218   18.444527
H   55.555645   47.938107    7.115293
