100
TIME:    4.263, STEP:  4263
H   29.032547   31.082428   95.243118
H   82.742104   35.869682   46.902046
H   53.031799   80.601540   73.303490
H   82.192139   57.014885    6.492793
H   56.987747   14.455752   50.116730
H   61.919025   96.589668    0.924786
H   29.546928   49.196598   23.825159
H   84.822899   57.404697   16.778919
H   48.835258   76.423279   31.745916
H   58.343727   77.593727   74.625458
H    3.721147   37.773441   29.116077
H   93.132668   37.372658   89.484428
H   72.036301    3.797588    1.428969
H   44.001869   91.936104   81.656403
H   32.356133   89.239288   45.854366
H   30.119099   38.871574   79.174744
H   81.301979   63.933544   61.466057
H   92.233727   87.390846   51.750416
H   11.666027   57.193237   87.953964
H   77.664268   15.286581    6.577453
H   11.304245   31.822300   41.538040
H   71.078308   49.743179   56.244446
H   28.826836   59.951515   10.380151
H   22.962639   87.809662   90.465271
H   77.115021   48.082939   68.023048
H   27.113161    0.628463   89.545341
H   94.475410   65.271378   84.553322
H   72.841614   55.422134    7.682320
H    3.865370   35.864376   55.657661
H   64.455536   85.330223   22.284683
H   83.831474    4.327481   72.103951
H   34.925518   34.729347    4.616788
H   70.638283   56.580788   81.841660
H   58.223557   83.044281   92.158424
H   74.804352   36.670097   84.315308
H   43.212681   19.325657    6.025972
H   88.676163   48.416000   44.372974
H   87.794609   80.937248   23.269901
H   65.132172   88.534843   31.195505
H   61.665573   13.095193   73.439087
H   43.905518    2.459467   42.780132
H   48.486984    3.182733    3.081172
H   47.960552   89.063889    9.395260
H    7.137993   84.213806   97.548584
H   86.871834   63.692780   20.907240
H   23.089130   44.227009    0.477371
H   75.039352   56.674461   66.388191
H   56.467083   39.277481   32.348183
H   89.642746   79.387726   74.422607
H   15.285449   95.619133   85.504616
H   43.219379   58.078453   98.365204
H   12.306593   68.165604   94.203156
H   97.299614   46.727051   55.281910
H   77.970146   37.651001   19.930634
H    1.368056   32.187344   36.605694
H   98.900192    8.049505   47.504227
H   66.506104   66.539619   61.434227
H    8.623961   74.299812    3.749358
H   26.490545   18.890984   84.210594
H   77.704239   55.457386   42.360725
H   28.614328   80.322289   82.018623
H   47.612419   88.262680    2.465635
H   63.476833   16.383457   41.143761
H   35.771866   64.985550   11.397869
H    1.527219   20.364895   92.563362
H   39.462196   30.346352   98.245636
H   45.540329   95.746307   72.879745
H   85.891090   61.342850   69.998650
H   69.370956   43.474335   92.864105
H   16.755117   62.560814   92.756470
H   86.662422    5.345018   11.009609
H   22.463593   10.044381   68.739769
H   29.036356    7.442097   52.446991
H   36.365185   79.609016   49.860771
H   67.706062   34.716709   24.562578
H   26.437181   80.791588    9.084227
H   54.008331   57.058758   66.442253
H   32.263821   71.974419   49.870384
H   65.937309   40.996952   65.249550
H   90.459534   76.782539   53.659935
H   94.294266   73.384354   34.777889
H   61.184151   72.068192   30.308516
H   87.516518   78.415436   35.929729
H   43.437416   76.953072   74.057175
H   44.756989   82.231804   34.502289
H   53.181103   65.643913   37.818970
H   51.870857   93.398087   26.819929
H   24.575216   63.988152   51.409546
H   44.153671   56.815010   93.324959
H   89.432022   33.884506   76.608109
H   98.482086    3.622065   23.488565
H   93.715256   16.100426   14.756277
H   58.720055   55.429390   48.668865
H   59.263798   71.816315   14.251226
H   82.885368   67.876915   14.046399
H   46.027924   27.389675   47.259529
H   24.225349   12.325315   92.019653
H   22.514006   52.534576   87.820457
H    5.633707   55.226414   87.965736
H    4.003289   69.235512   87.071838
