100
TIME:    3.731, STEP:  3731
H   65.009918   79.869659   95.730179
H   97.484962    7.032902   13.350069
H   43.887238   42.326698   79.545982
H   82.102844   78.932610   35.654072
H   61.752823   71.813606   64.541840
H   70.167610   97.166023   48.239807
H   57.427265   13.271900   82.221992
H   26.637054   11.381433   65.626900
H   61.912834   27.573059   65.235222
H   72.882484   69.954994   53.793510
H   53.206497   16.367130   80.360313
H   13.437630   10.706297   27.352003
H    5.934086   35.976822   54.297371
H   70.343727   93.575874   41.171268
H   25.884426   36.759048   71.427925
H   51.509354   85.402092   23.335882
H   24.082436   28.747478   13.036001
H   80.868980   13.262244   70.196472
H    3.380193   34.873688   59.924221
H   92.000084   26.584356   70.356468
H   42.873886   84.784485   55.975327
H   20.074951   49.036942    1.549178
H   35.929802   64.278236   25.602448
H   72.391167   81.429169   29.976749
H   96.142853   90.272034   64.094093
H   29.549318   16.438654   39.464088
H   40.350567   87.383926   74.000343
H   17.731192   30.590164   90.098106
H   92.297424   87.597702   80.806221
H   44.055817   98.497093   79.992584
H   62.895771   56.620800   14.194099
H    1.334940   49.426399   53.866692
H   33.163754   95.505043   33.914902
H   35.745712   31.798775   14.570152
H   88.028046   76.885063   51.919174
H   96.956490   77.575531    7.808084
H   37.650551   67.898422    2.453616
H    9.784022   90.670341   85.727837
H   87.585663    0.126859   82.750832
H   11.775291   62.900482   31.581224
H   80.264587   84.203308   30.246443
H   96.300095   79.308182   78.087006
H   43.378124   85.873642   70.966820
H   41.108994   75.300598   45.531105
H   33.019321   84.685028   75.382385
H   29.952625   34.079914   98.317329
H   70.883102   27.742767   61.280014
H   56.438671   33.798050   99.431099
H   74.089279   23.448372   95.642212
H    4.127704   87.525810   22.713642
H   43.259968    9.439339   92.755890
H   86.452759   17.529991   29.128689
H   86.267693   43.642334   86.178932
H   90.292778   46.332855   96.456024
H   43.725815   85.562195   32.080090
H   98.234543    8.609625   65.614761
H   32.780918   81.890144   10.836649
H   48.238029   24.540852   17.453121
H   84.532829   96.411987   25.051872
H   12.812072   14.564596   57.492073
H   95.054604    5.064342   23.498028
H   66.494133   93.214462   26.538132
H   27.357496   52.686577   77.624596
H   99.240044   62.090218   25.843273
H   80.412971   62.856312   43.021183
H   72.143959   56.793739   66.789642
H   88.223068   77.351654   47.195415
H   22.640251   30.917730   44.565975
H   42.855392   81.700470   26.230488
H    5.976873   35.800896   93.876709
H    3.555519   41.542931   17.392132
H   66.328110   27.700668   29.787708
H   63.723358   33.755543   66.088127
H   48.078991   13.273941   81.471001
H   42.057682   33.957706   84.232826
H   13.859015   46.695290   44.880222
H    5.705182    3.167922   57.033863
H    7.269495    6.759128   20.488459
H   40.427208   42.559605   59.312325
H   16.550209    5.754955   99.492332
H   83.887405   67.880569    2.982399
H   21.265480   68.593826   74.793457
H   53.859409   69.534698   85.259277
H    6.837481   31.429119   22.647957
H   70.660492   15.507603   86.073883
H   65.426147   46.100952    0.875034
H   16.339788   32.078835    1.451716
H   16.013098    6.581417   56.941742
H   33.113632   86.436409   97.676033
H   36.467930   55.773819   57.589760
H   76.710480   74.893898   12.253701
H   54.351654   76.095268    4.618629
H   24.618137   39.465981    7.528477
H    7.842539   39.545479   78.380135
H   92.082695   15.528919    1.822194
H    2.086875   48.397774   74.737862
H   66.453125   81.795143   22.616144
H   20.561705   48.004913   96.335899
H   30.977043   52.933170   32.526619
H   70.956657   82.889442   38.320808
