100
TIME:    6.217, STEP:  6217
H   96.892410   51.891563   93.454178
H   28.776180   41.754551   70.108376
H   86.629196   21.179672   50.366375
H   82.520111   76.509613   99.387085
H   39.485947   71.077393   97.137711
H   31.611393   94.472755   94.436455
H   27.137695   81.139519   76.630577
H   31.242355   26.451588   37.369740
H    0.802156   88.554108    8.748343
H    4.951612    5.650684   51.138432
H   21.964828   16.396765   40.896553
H   18.554581   35.316547   50.395943
H   47.347183   85.635811    7.269218
H   47.251884   85.913338   30.356571
H   56.117683   14.699738   51.926273
H   51.552078   67.967445   16.975597
H   24.173073   93.177544   39.346382
H   34.014690   92.319992   84.011757
H   42.097904   39.164703   90.898331
H   25.020828   73.785927   39.614861
H   95.351135   37.295559   88.503151
H   58.410187   52.337143   89.843323
H    2.736557   44.059761   54.475067
H   41.409100   11.201632   45.345219
H    7.229257   93.120087   82.453835
H   18.205729   42.869896    5.798984
H   25.979675   84.044083   23.321508
H    7.969810   46.628242   72.275589
H   46.353767   13.147047   63.291138
H   39.379887   36.969200   77.622421
H   60.735504   79.545631   17.509682
H   58.302402   80.741928   23.725197
H    8.273731   13.617163   57.873413
H   40.785332    3.971820    9.839357
H   26.232315   88.955940    3.297222
H   13.070967   72.370781   99.879921
H   76.089699   76.855103   98.340736
H    7.033598   45.180408   61.156704
H   82.651031   45.958061   41.838524
H   77.621048   30.168316   27.174685
H   10.364002   69.501366   88.815529
H   76.279037   65.983109   97.349083
H   64.790802    0.781731   50.533943
H   82.367004   16.994955   88.601158
H   17.377411   86.601028   88.115463
H   97.875420   81.496597    8.418451
H   90.304977   62.939651   85.142250
H   56.571438   59.403061   53.250645
H   46.757622   17.558357   96.474533
H   56.268681   25.358484   48.839706
H   43.074703   69.432236   18.963871
H    7.267401   86.848434   65.928780
H   37.831829   58.057007   41.795353
H   32.720261    5.764335    6.155997
H   45.788445    3.432596   53.227932
H    1.339025    5.994042   80.985443
H   90.383003   10.157794   47.275932
H   63.124908   89.768333   53.420151
H   80.598129    1.452138   34.203285
H   48.760155    5.646564   86.784325
H   51.873981   89.452652   29.669765
H   78.264442   70.075119   14.053473
H   96.132240   83.045937    7.152100
H   69.950974   75.629745   58.350994
H   79.087021   64.303909   74.531044
H   19.426403   33.207481   13.781329
H   88.766617   63.297520   67.218948
H   50.915092   73.094032   63.411152
H   66.758247    3.072356   70.314362
H   56.338295   60.840759   88.641907
H   24.615116   72.396332   87.571510
H   61.346027   45.194931   11.801040
H    1.630668   10.789040    2.341782
H   93.350227   55.944233   33.759880
H   61.915852   37.504475   72.688736
H   72.633781    6.023690   77.603607
H   31.419498   87.703392    1.000925
H   24.066296   44.206253   57.782791
H   59.639004   35.257435   87.044807
H   94.637955   70.350166   85.321129
H   32.529449   93.599380   51.564320
H    7.815976   84.788895   66.889000
H   11.113290   11.088731   22.018822
H   77.868690   44.161522   95.590721
H   49.613167   60.009514   45.083908
H    8.204159   37.414688   73.510513
H   82.374092   51.326241   19.994040
H   56.015465    7.582697   31.117180
H   84.702988   48.019295   77.343758
H   16.672113   53.493214   46.459084
H   78.447899    9.132381   64.753464
H   38.293941   63.057098   51.982880
H   83.975235   14.059407   99.774734
H   48.115978   90.351387   46.001724
H   49.104210   92.848160   58.945988
H    7.420341   50.228729   46.332886
H   69.126152   24.460844   79.643845
H   26.277079   94.076263   54.073807
H   12.549424   63.649342   24.298073
H   25.373186   19.096985   98.836555
