100
TIME:    8.223, STEP:  8223
H   61.234123   67.932854   91.617630
H   73.377426   50.457386   96.591202
H   21.116755   65.499481   26.814335
H   82.856812   93.861992   89.431953
H   21.513922   31.866962   42.745285
H    0.499099   92.299507   93.097145
H   22.003128   16.593653   33.502476
H   73.574707   99.996696   53.185936
H   51.490837   95.684647   82.478973
H   50.160591   34.455097   29.684200
H   35.371597   97.113037   47.668213
H   41.993065   35.866940    7.607283
H   19.396446   64.257538    7.928256
H   47.927132   79.730293   83.014076
H   80.482552   35.513931   55.455734
H   70.894119   92.515221   50.460236
H   62.862282   25.858562   21.960485
H   76.908783   94.707954   14.476868
H   73.339096   23.317783   96.582504
H   70.972183   31.189661   76.192696
H   76.312248   37.591908   34.057926
H   50.727360   55.000137   19.013840
H   75.953300   27.747091   97.079742
H   55.023293   35.199188   96.362000
H   35.481880   34.035385   97.268654
H    8.835278   83.689438   17.061153
H   53.001068    0.655494   63.128681
H   38.708855   40.261539   38.581100
H   89.971779   95.147171   68.466484
H   16.299755   87.319962   37.093079
H   39.682415   59.427170   58.801491
H   84.962608   25.319477   38.019753
H   49.574505   66.848564   38.589737
H   25.543606   20.133705   25.328897
H   76.307884   37.073509   25.345877
H   87.449280   29.490152   93.574440
H   68.490898    3.390215   56.405544
H   24.121037    8.465542    2.716564
H   97.975182    2.253431   47.442329
H   88.678711   42.373741   85.003357
H   73.267853   38.332962   36.074795
H    7.224265   73.849655   99.759941
H   82.054352   12.815153   95.429817
H   54.276699   50.666405   84.736481
H   43.371239    7.456583   59.775314
H   71.980095   19.754383   16.568132
H    5.980496   72.032722    4.398206
H   56.689510   80.064224   77.370201
H    5.398971   51.420540   16.454659
H   98.384033   55.892757    8.579780
H   42.936962   75.765800   40.110062
H    4.766057    0.705065   34.248291
H   79.439262   69.688477   25.293146
H   86.266388   73.041138   94.675369
H   86.067116   79.229660   70.286880
H    3.837496    3.883925   12.696472
H   17.555061   52.275322   38.063255
H   13.754464    0.325996    1.748471
H   38.805279   86.219460   80.206833
H   16.386345   59.836376   29.728905
H   78.413589   96.164551   73.265511
H    7.067604   51.403549   23.289356
H   32.319668   46.160553   69.594666
H    7.698036   86.557205    3.882752
H   58.709770    4.086229   61.341187
H   96.197182   33.483543   32.392292
H   27.822157   32.653309   64.068649
H   12.347013   87.819084   59.309555
H   66.736969   58.933998   44.501137
H   97.029594   61.662540   84.402756
H   60.914577   35.908348   63.512733
H   96.123703   78.563866   58.787640
H   70.836090   11.569052   50.913761
H   49.186390   28.986523   14.570974
H   58.581161   40.423138   24.774908
H   20.052752   34.589752   42.625572
H   13.606530   14.078430   36.577736
H   18.309843   13.041943   68.567749
H   55.834450   29.365177    9.424953
H   96.262199   61.073753   12.502344
H   71.794029   14.353066   71.460403
H   58.342690   97.797913   99.068352
H   37.997452   44.635777   13.059560
H   15.879052   15.818960   12.373798
H   51.938721   34.522541   50.625343
H   62.042545   11.097545   12.813405
H   16.350435    5.473153   15.647697
H   88.277489   47.061859   10.318275
H   26.335876   36.328255   60.937263
H   39.315159   70.961075   18.169943
H   60.541737   17.450031    7.116803
H   86.717628   13.927757   90.208870
H   12.563568   74.249657   54.901794
H   41.986801   12.052724   81.263069
H   14.420185   13.162857    5.042912
H   73.107666   71.014771   42.720390
H    9.899529   39.579689   64.276436
H   22.405024   93.334145   13.804037
H   16.988060   72.311104   56.275837
H   49.972546   67.615555    5.591878
