100
TIME:    6.441, STEP:  6441
H   81.743973   31.349600   93.249100
H   22.590511   53.893467   84.231422
H   90.481247   37.294823   47.736248
H   82.557709   67.281097   87.109741
H   37.479599   89.031982   91.063980
H   28.137028   94.230080   16.619728
H   15.397849   96.264030   94.147667
H   13.636398   45.829762   16.802113
H   95.295799   67.017487   94.648430
H   98.832771    8.867264   59.908939
H    1.128904   25.409948   19.320122
H   10.004532   46.544575   34.451118
H   33.053238   72.090401   85.011406
H   36.160576   85.222908   47.403690
H   58.838387   94.690971   41.154545
H   42.545731   48.375648   98.381348
H    6.160166    7.993730   59.737984
H   38.804974   81.420090   76.246132
H   45.585941   48.562408    2.700213
H   18.986404   69.028114   54.865837
H   82.058655   14.995022   82.422585
H   79.885284   52.634506   70.767639
H   99.745567   42.237984   48.066376
H   20.595848   13.881319   28.708426
H   99.217964   75.356903   84.108131
H   17.184610   36.247581   84.734337
H    6.663879   74.733536   27.766577
H   89.068985   57.083809   79.678909
H   51.224373   33.469555   52.702271
H   47.969242   31.425255   95.430038
H   69.551079   99.633034   99.787590
H   72.445953   74.551987    2.988432
H   24.052139   97.228615   78.053101
H   50.249687   83.443558    0.403060
H   20.657608   71.995979   16.926043
H   32.542370   89.915215   99.175819
H   97.575050   68.651978   15.990760
H   97.775261   41.080555   76.964500
H   73.196930   41.077202   20.131472
H   56.522533    9.198084   44.799206
H   95.055389   77.188377   94.092873
H   57.401596   66.861526    8.784829
H   66.718536    2.125479   66.713188
H   68.062805   20.754721   10.502948
H   97.947029   77.762161    7.283756
H   94.983818   85.769058    9.328485
H   92.054977   75.121292   87.292152
H   56.583401   61.710190   67.110504
H   53.304741   99.007179   87.539963
H   60.970097   28.768763   33.176865
H   43.059322   47.806747   21.324833
H   18.155594   66.063629   51.224678
H   42.478558   59.355835   28.785067
H   27.533493    2.109244   16.039909
H   27.953289   23.063118   55.133450
H    1.618017    5.758416   73.359955
H    4.584245    3.693993   68.580132
H   46.445221   68.614525   47.650620
H   98.265610   10.917775   17.007484
H   33.979149   22.864552   80.413231
H   66.003868   79.034683   12.205561
H   70.314247   67.990158    3.917829
H   11.339506   67.760780   91.791748
H   85.331833   76.849960   52.268719
H   87.977158   46.412579   95.390907
H    5.666515   22.071739   27.026030
H   70.794937   71.042480   78.033401
H   35.441948   85.904579   74.119644
H   77.921333   86.977158   56.265568
H   60.875648   72.106865   88.170227
H   17.501469   57.155609   84.884987
H   42.877033   37.760849   28.201309
H   87.025604   99.709656   96.598938
H   88.418098   41.768208   20.451052
H   72.716301   37.824055   89.669205
H   77.928215   20.380043   62.530533
H   51.763271   68.316673    4.973659
H   34.590221   29.558691   70.153282
H   70.380989   34.599476   89.543343
H   83.652603   58.148018   66.023277
H   36.912994   95.916763   64.952499
H   24.624792   86.241669   48.150028
H   25.282478   14.834397   43.352074
H   93.280312   63.329491   75.130760
H   38.706429   45.997551   23.369553
H    3.048358   45.643448   89.065689
H   97.334541   35.039619   30.675192
H   59.618004   89.658508   28.794670
H   89.351425   35.547127   75.511726
H   96.867355   44.276661   54.465675
H   87.614891   21.227718   69.483932
H   54.867672   79.904266   56.250214
H   98.334122   20.780842   17.096994
H   69.764137    3.941137   61.105728
H   45.231651   72.784683   64.093445
H   25.921814   41.383026   34.763062
H   51.345879   37.315323   66.761520
H   25.844706    5.160269   49.577469
H    1.878830   64.616005    5.535133
H   39.286030   13.348816   77.258919
