200
TIME:    0.702, STEP:   702
H   23.667410   60.941715   23.239491
H   32.082092   39.622833    8.652825
H    8.454583   89.359818   68.104179
H   33.415787   82.373726   32.418510
H   10.304971   95.438568   47.016052
H   74.588928   40.275589   51.874847
H   10.052779   54.976326   58.593731
H   13.241788    8.835883    8.673488
H    6.190518   80.580032   36.448933
H   94.597946   68.427391   77.849342
H   28.296740    4.463336    7.561303
H   32.688232   54.354286   34.755585
H   22.513393    2.340911   42.356560
H   82.567314   55.156139   64.528313
H   97.316544   75.501091   41.841850
H   15.833971    6.930790   44.356689
H    5.940743   29.356243   93.000954
H   25.591816    5.376995   35.295292
H   80.396988   12.976032   49.284897
H   91.526085   73.360069   19.561314
H   63.629555   99.820892    4.674404
H   79.743721   66.473518   52.771027
H   81.170448   59.182343   38.050774
H   18.393902   92.271294   90.137398
H   23.327362   31.284925   28.924953
H   18.278654   82.839783   91.697777
H    7.842652   68.066933   67.657455
H    5.113278   89.187920    1.946929
H   30.527142   42.487007   35.633095
H   72.172150   33.140812   82.644547
H   12.758314   70.750954   16.759659
H   23.524738   74.334457    4.977843
H   15.960320   18.926611   78.822327
H   81.136055   64.081963   46.365570
H   25.817324   70.710800   30.704557
H   17.969910   39.388145   84.774223
H   99.524689   64.457397   89.423317
H   10.062724   56.706081   94.395248
H   35.971542   29.857174   54.701080
H   85.652100   37.788631   45.649506
H   80.641777   83.641754   16.859161
H   36.334976   33.419029   26.131702
H   68.383377   77.168816   67.483391
H   36.252029   85.672646   35.271450
H   44.562553   90.390747   61.036125
H   34.558334    1.815012   47.712452
H   88.680359    3.577606    6.308258
H   78.868248   65.543556   31.038895
H    4.947540   11.220026   61.499424
H   45.584415   19.886412   86.167191
H   67.217972   64.648506    9.559417
H    3.477518   43.649883   73.474556
H   64.637413   81.209297   13.966187
H   15.530598   91.933243   88.544762
H   57.643417   66.110199   75.831810
H   99.383232   60.968071   93.776581
H    4.111996   18.493752   44.698750
H   72.456161   69.319397   96.964500
H   18.432501   83.402206   18.300388
H   32.417919   93.394936   58.453690
H   48.923248    6.362661   28.738144
H   98.239922   17.519327   52.607933
H   84.175293   34.776871   69.298340
H   35.320122   65.811470   13.982681
H   78.775085   82.966492   36.821766
H   20.616488   34.510063   41.167679
H   68.917824   13.416734   95.380226
H   94.754234   92.500313   96.418358
H   32.955841   12.096515   56.132195
H   42.577518   49.682346   50.957920
H   58.262489   84.582809   85.639221
H   19.156090   11.678241   41.530842
H   92.156876   33.650249   84.025497
H   22.916819   98.809639   74.022743
H   84.770584    8.350284   45.889496
H   64.991356    2.765969   59.858498
H   93.474854   47.149361   65.610634
H    9.443483   14.382708   32.169472
H   15.042995   50.276550   24.705915
H   61.313969   88.090332   72.351593
H   62.976452   22.293779   94.274658
H   46.951298   60.281551   73.574821
H    9.197228   18.734053   76.762184
H    9.608274   76.966805    8.909038
H   22.456306    4.209303   44.689400
H   37.682961   69.609680   18.165459
H   56.561539    3.746815    2.830508
H   71.489479    1.349224   28.867821
H   79.826797   73.181702   78.834595
H   21.130112    6.755669   49.782772
H   21.876377   38.881084   78.699539
H   80.837303   92.588959    8.448551
H   69.207153   11.651592   82.571823
H   39.310970   77.835457   81.790352
H   36.831215   50.676765   87.181557
H   50.139565   38.038666    7.339486
H   85.572655   98.299309   18.226326
H   94.194435   35.617363   52.967823
H   26.549309   65.149994   54.518509
H   75.237404    5.434358   27.363199
H   30.479033   93.200195   90.694740
H    7.751494   83.646210   63.316185
H   32.756226   20.285643   36.958683
H   44.075371   68.792480    8.509276
H   24.726309   21.401299   40.066090
H    5.713525    4.153486   22.260557
H   87.543663   35.833363   54.109116
H   62.028790   52.012833    0.876837
H   84.537605   34.257904   21.472645
H   19.207819   21.618853    7.798411
H   53.273026   92.052055    1.120902
H    4.544576   74.963074   95.773659
H   49.069878   85.635849   83.886223
H   61.659172    9.437199   63.040367
H   48.432869    1.206785   10.573503
H   95.184135   92.282570   99.776413
H   13.579843   14.948133   89.565964
H   38.427135   49.736599   24.743584
H   36.407593   75.059052   60.706387
H   82.974846   55.895687   66.577438
H   45.376472   24.829517   72.380898
H   98.354935   16.535587   61.777954
H   43.374702    2.337282   37.734745
H   97.270645   50.693848   97.633476
H   63.092186   97.513374   77.533211
H   64.648338   74.992523   16.611048
H   83.902901   51.347092   53.212326
H   65.323128   91.193443   38.904507
H   98.153191   35.760349   74.361748
H   90.138123   21.959576   74.372444
H   67.258568   68.689728   21.066967
H   63.966835   90.633591   20.222080
H   90.929146    5.072058    0.812080
H   78.266800   24.848164   55.393154
H   27.249226   93.016418   35.187134
H   50.053070    1.033916   76.875252
H   69.657593   87.741798   78.337852
H   95.159050   49.795788   75.898552
H   58.389130   50.794556   71.440819
H   43.698204   86.932610   82.620239
H   73.489960   49.482399   29.833832
H   35.969772   55.048264   57.016857
H   40.153839   65.264259   83.801193
H   36.543251    9.804064   85.780251
H   62.018108   54.444855   64.175751
H   62.867889   69.935135    7.719357
H   55.658073   94.754570   43.973888
H   30.037254   56.221291   66.174339
H   77.536102   45.502991   93.351669
H   24.189198   93.718758   72.707886
H   59.936180   69.156113   47.856426
H   53.235344   94.325905   33.674294
H   97.638138   14.563641   87.246735
H   22.122593   11.747345   64.535759
H   31.932583   66.080368   69.111153
H   77.217018   44.674458   68.275162
H   64.147263   74.739105   86.226242
H   52.614494   29.247284   20.547852
H   91.236824   99.993546   85.471153
H   58.500011   38.093292   95.970718
H   58.494102   65.639931   71.132027
H   21.912199   20.662094   31.541588
H   85.106163   14.426819   37.039951
H   28.233156   33.751827   51.432945
H   54.530586   37.764824   14.364021
H   19.873531   49.739201   59.776318
H   66.944405   90.094429   57.119381
H   24.035801   51.952591   67.117020
H    0.350664   26.667772   35.766014
H   47.556427    6.973266   85.200775
H   70.538940   11.128070   35.937302
H   30.202635   48.286865   58.876839
H   46.599449   57.602108   77.424637
H   65.536942   63.487549   84.958130
H   49.964905   91.561111   77.508202
H   15.171316   50.156395   23.730085
H   30.671627   67.353775    6.233787
H    5.824634    9.641457   70.787735
H   63.786472   10.639338   63.731441
H   64.323524   59.410942   92.902321
H   72.983017    1.745412   30.977615
H   28.546305   30.670010   86.482239
H   44.362797   89.680008   15.219971
H   61.542122   26.075245   94.186775
H   91.497467   68.296005   76.493454
H    8.932199   40.122177   86.266457
H   47.439087   96.611107    9.501970
H   68.225510   86.794136   41.692596
H   93.238747   63.233639   71.823532
H   58.014885   55.760143   71.540054
H   69.890213   15.739136   76.002266
H   43.865540   97.484467   18.739767
H   14.362512   28.515171   68.390099
H   27.032362   81.969254   42.623989
H   69.040146   33.619511   20.305035
H   76.456070   11.517103   23.236748
H   12.532245   98.156975   19.060408
H   15.482704   88.224129   33.937363
H    5.752435   12.904608   57.354805
H    3.189123   19.340240   91.330170
