200
TIME:    0.081, STEP:    81
H    4.585402   63.002682   12.620775
H   26.547112   30.556761   83.442413
H   21.470308   62.178749   37.516594
H   12.482943   75.115334   48.657505
H   16.898367   79.699417   55.944538
H   94.791138   57.130505   70.256157
H    1.055643   55.416946   46.573795
H   99.325577   82.020386   30.716156
H   80.971283   89.889915   51.598221
H   16.458324   77.126091    2.343898
H    6.651597   91.197578   87.937119
H   30.120316   37.778904    5.166204
H    7.271716   81.731010   67.808311
H   11.919281   52.536106   34.604031
H   27.298504   70.720596   43.369808
H   33.934937   32.517570   57.752972
H   76.727600    0.271802   23.151747
H   40.337872   75.523460   46.351074
H   59.735210   35.458073   40.143208
H   89.550400   81.888206   43.634350
H   56.176910   68.821114   33.124981
H   93.568779   42.736870   76.701927
H   99.766525   63.697517   52.951324
H    5.264614   86.648903   92.091537
H   96.335541    6.309099   51.083897
H   18.792711   55.280434   12.207945
H   95.816978   55.606373   42.688965
H   90.861359   63.570301    0.312903
H    4.371861   61.362617   39.269398
H    0.234473   16.504940    4.125812
H   13.569079   44.806461   16.000418
H   34.817413   59.779770   89.688538
H   30.965103    5.564216   71.237022
H    1.689061   63.404449   35.511147
H   55.618671   96.371017   35.428524
H   38.255032   53.547222   77.653229
H   81.700882   77.860786   84.761269
H   40.779869   40.642387   22.316389
H   58.954872   52.094177   40.897343
H   91.607582   40.342335   69.907318
H   80.457565   12.652613   96.246498
H    5.425243   46.441021   44.545750
H   79.564713   91.434494   44.424252
H   37.635483   55.512135   13.061749
H   23.344559   71.444069   38.626076
H   43.297306   17.976515   40.958641
H   76.977859   34.001934   92.692635
H   93.986740   65.553032   53.363663
H   80.931297   34.785992   61.051697
H   67.806915   17.083971   12.439349
H   81.990601   72.508606   34.170044
H   27.216223   32.961285   60.122593
H   47.889156   98.972473    5.848031
H   24.772997   78.828339   79.348587
H   83.929031   79.921043   95.915573
H    7.343922   76.267075   73.441711
H    5.884249   16.143776   51.360172
H   65.671555   54.883160    8.173198
H   31.536221   71.405960    3.280890
H   46.780724   96.881996   69.933510
H   50.934467   18.478539   46.881969
H   87.079903   16.048223   47.847649
H   67.066902   21.912670   90.249130
H   20.273619   64.925491    0.117517
H   68.792427   73.708725   11.427724
H   44.976719   10.383988   30.005295
H   92.114357   26.515833   82.550117
H   98.231819   91.088432   84.123627
H   10.866971    3.704591   63.992294
H   46.152229   38.858719   50.991085
H   58.534916   73.842094   69.028305
H   36.608849   28.001175   45.877823
H   72.447403   22.914272    4.819664
H    2.685377   12.459558   55.944145
H   77.208969   98.297539   75.088890
H   49.294846   24.690102   63.916470
H   96.099625   24.031004   74.394615
H   32.444389    3.074622   53.404533
H   10.321732   22.609379   38.460011
H   70.671913   91.553703    1.802136
H   36.619770   32.789223    3.493733
H   19.645212   71.449463   92.772606
H   11.620049   11.922204   94.931854
H   29.859047   56.660362   88.669281
H   44.570240   97.642532   62.288158
H   20.187635   91.337479   31.092693
H   28.729017    2.452788    1.406814
H   76.653740   24.462021    5.445088
H   60.824322   71.655205   76.587692
H   24.240513   78.920349   56.614758
H   47.907776   33.520203   81.461708
H   85.162964   87.140427   94.898453
H   39.706490   18.655325    0.258218
H   67.157974    0.146013   64.738815
H   21.095980   59.076981   61.317612
H   75.856636   24.154385   36.537369
H   77.148750   19.778643   91.481422
H   11.265701   25.967981   47.088146
H   40.620735   71.370796   52.317776
H   64.439835   95.343536   27.211588
H    2.772295   76.030212   61.452496
H   84.659782   74.251045   66.741653
H   19.883474   42.980576   28.280794
H   14.235661   67.645920   83.848320
H   25.549511   29.562252   19.932579
H   81.128464   34.557579   51.334797
H   58.126331   28.122503   56.999207
H   65.687691   28.169582   24.889767
H   68.755814   42.096684   91.444130
H   99.259201   30.277281    4.759078
H   45.102596   97.448471    0.683983
H   79.609550   59.346401   88.700043
H   59.855602   78.429573   97.393845
H   63.762779   22.825190   79.054169
H   69.156242   75.347610   32.347660
H   20.527271   10.448843   71.761482
H   39.112194    6.203770   82.326523
H   41.577808   19.170334   37.156761
H   12.823964   51.744076   91.397949
H   66.586609   43.501461   43.411434
H   38.895088   20.702847   92.729980
H   25.149635   31.246624   43.511158
H   28.403082   28.528439   19.312416
H    6.419909   73.040894   24.827944
H   81.673439   12.887403   98.071907
H   41.897167   58.001740   28.601372
H   99.338829   48.447525   77.195343
H   78.906555   86.322929   33.659702
H   90.511032   58.239098   88.513718
H   60.038536   24.902967   63.792816
H   42.190582   90.862885   97.335075
H   87.802979   84.474380    5.577424
H   92.956947   74.858963   96.192406
H    8.717159    8.926270   47.749798
H   96.571388    4.245060   63.723228
H   66.592918    1.830912   86.024048
H   68.629478   86.159355   47.423355
H   89.862129   69.184822   85.710648
H   42.157242   42.110069   71.587692
H   43.361816   16.715780   99.875504
H   42.746021   67.744942    9.773941
H   64.557983   36.179760   42.540344
H   60.116787   53.834450    4.747132
H   64.998802   32.283413   75.489632
H   32.828190   75.040306   43.869312
H   40.114346   59.236004   37.461239
H   40.970726   97.474098   48.420364
H   46.994034   79.337280   69.737206
H   60.934666   71.430222   99.525093
H    4.369380   86.900566   95.940216
H   81.824623   58.609646   52.544533
H   27.094456   11.509201   53.135029
H   68.789345   37.783863    9.046497
H    5.706743   97.492760   79.881668
H    7.307579   49.679985   57.876408
H   58.782028   43.134655   49.169239
H   57.646923   56.115601   78.873093
H   43.785503   39.210991    5.999046
H   19.658957    2.333439    8.501282
H   65.461792   63.431335   72.139313
H   52.394115   90.869003   87.643448
H   51.069363   23.880281   36.921421
H   58.375195   41.502056   37.298164
H    5.438430   15.508704   78.001709
H   60.476593   16.693216    8.262258
H    9.174272   69.497765   63.170990
H   77.637741    0.138655   50.536133
H   23.493317   23.698399   41.437855
H   91.912476   28.687283   37.232380
H   19.216953   11.659595   92.193848
H   82.402527    3.742940   35.989418
H   51.655739   71.352356   56.969852
H   34.600834   84.286270   94.897842
H   73.179802   78.355759   70.561081
H   78.827911   96.232635    6.707112
H   95.998116   46.801994   23.134201
H   37.051147   47.954220   80.256683
H    0.320823    9.049225   62.847088
H   79.667793   25.075800   70.994484
H   93.864044   52.749519   84.142029
H   84.320702   79.491608   45.416142
H   16.020603   29.911953   63.811611
H   72.954834   90.330734    2.923102
H   48.018806   24.925865   71.340843
H   83.466805   95.230705   79.051895
H   95.931755   34.882111   83.158424
H   25.815861    7.248145   95.742386
H   98.059776   60.489883   19.963087
H   11.222902   60.464363   64.726227
H   46.722210   59.138233   63.694172
H   40.224609   36.284840   80.436897
H   48.956364   80.608231   26.649614
H    0.568713   13.741357   54.163960
H   37.881504   57.184887   30.108768
H   90.351013   61.357277   22.336390
H   74.939957    9.993291   31.744749
H    8.404389   81.223885   98.100113
H   33.530491    0.566152   51.450840
H   14.033611   11.167000   85.128105
H    9.666160   40.379395   99.957802
