100
TIME:    9.519, STEP:  9519
H   73.590973   49.083839   90.431107
H   37.583969   20.684185   78.309013
H   43.393734   58.738777   11.601400
H   83.074341   40.468437   18.393351
H    9.900824   35.746811    7.607258
H   80.407104   90.895454   21.443989
H   54.078144    4.105540   34.851376
H   71.711670   12.116945   34.190842
H   19.632683   71.078888    0.899641
H   14.760233   53.063740   80.428078
H   14.820831   49.258621   22.828985
H   92.526421    0.829059   15.356293
H   36.754700   85.816139   79.135254
H   83.757843   75.735664   81.640343
H   96.223763   19.748817   93.132347
H   18.784710   79.162338   42.880920
H   58.645668   11.579393   39.940475
H    4.625174   31.644234   69.549393
H   93.529770   77.687729   64.857773
H   36.056759    3.667261   64.430382
H   99.405273    8.570938   98.881485
H   74.976151   56.720596    8.647461
H   58.649834   17.211752   60.000885
H   34.605297   50.703094    0.109934
H   89.130966   31.256248    6.836605
H    2.722315   45.483383   95.101402
H   41.245033   46.784084   88.837021
H   29.356379    0.754452   81.420464
H   18.152843   12.730330    7.204310
H   65.993752   55.244278   40.121407
H   90.687859   75.642395   56.266113
H   66.792801   89.512405   18.042534
H   40.863258   72.027145   55.343651
H   80.302246    1.363224   70.731194
H   44.054222   38.948097    4.195629
H    0.108273   31.002005   89.500710
H   92.795105   55.928963   58.525288
H   70.552437   84.752098   94.171196
H   43.272701   74.014549   21.850468
H   66.609131   21.045746   86.969925
H   84.695557   82.802109   66.607994
H   98.004265   78.931931   65.921104
H   93.207672   20.590813   89.040184
H   71.530067   72.425392   11.451343
H   30.953497   56.334400   70.680618
H   55.255287   44.471172   21.833330
H   16.112934   42.515965   16.843950
H   56.768612   93.412613   57.558949
H   43.278816   44.086224   64.759491
H   25.587118   75.624535   17.964088
H   44.284946   50.754326   51.567230
H   67.752441   80.446869   49.173073
H    6.315689   77.203125   50.024620
H   56.249901   51.895584   51.863045
H   82.877693   92.804245   81.301773
H    5.451662    2.520659   68.577560
H   99.716217   14.879984   61.323570
H   17.251673   77.934868   68.367455
H   41.022793   40.982201   80.712074
H   30.863049   59.451252   92.867592
H   60.169918   35.893772   72.224953
H   61.070000   39.340561   64.652718
H   20.305172   57.723656   80.724060
H   96.692200   93.617020   68.701385
H   10.147586    0.575505   82.031456
H   16.582417   69.055931    9.022199
H   23.841515   77.457428   26.639969
H   22.823486   61.939278   21.265854
H   31.327700   65.811707   63.219234
H   23.350922   26.759310   81.653976
H   19.753574   47.725460   47.969276
H   89.400719   35.532616   53.783810
H   86.335495   47.460827   17.681217
H   20.660389   46.962116   37.566414
H   21.010416   42.331463   23.038443
H   50.694717   17.650974   55.420456
H   31.311440    1.905848   59.566628
H   79.191963   28.304390   40.149254
H   17.984861   25.558414   23.889528
H   32.704094   90.473793    0.850974
H   97.165855   27.760782   48.921089
H   55.593163    6.208837   90.644341
H   19.970896   66.309608   36.484692
H    5.041562   26.720909   94.004265
H   88.835449   53.448479   24.993517
H   32.211369   58.704628    2.811357
H    2.907346   11.243199   77.445793
H    9.120052   43.357033   96.883133
H   53.231449   64.169533   50.337654
H   24.731131   17.638023   64.495377
H   13.579926   87.428558   34.485985
H   82.608505   11.399426   14.902673
H   95.639877   13.131361   55.123466
H   65.801308   90.569870   70.856743
H   92.011902   97.074898   34.821083
H   80.151947   19.837236   75.780106
H    7.029176   13.954469   89.741394
H   19.903437   57.459217   87.782249
H   55.249779   77.907539   47.722126
H   30.473190   34.362164   80.744705
