100
TIME:    5.016, STEP:  5016
H   78.111000   62.028572   94.553726
H   61.945442   76.674164   94.380249
H   65.976013   34.774597   64.467781
H   82.318527   25.991684   65.220589
H   50.243195   74.812027   29.699558
H   50.239574   95.773888   75.497978
H   90.081825    0.040939   82.710739
H   25.638588   22.549969   47.641956
H   30.325081    4.025381   84.347801
H   37.765373   88.405693    4.109193
H   33.678925   68.072220   56.582302
H   64.396507   75.116875   35.884193
H   23.985672   58.263008   26.606934
H    6.718839   89.615150   38.960251
H   41.513557   21.978029    9.657059
H   99.840576   73.011307   16.669155
H   20.750374   13.740905   30.014616
H    8.331759   50.755520   25.645182
H   23.394310   88.780121   27.624590
H   57.375038   99.295448   57.845222
H   66.620171   56.859467   21.101776
H   43.269150   50.742798   92.119568
H   18.773201   53.827415   88.835953
H   52.999844   96.834198   34.541054
H   50.182770   88.365463   73.584145
H   23.680563   78.372437   18.736418
H   29.543222   33.967464   99.490150
H    9.306716   90.569641   32.574638
H   20.239494    4.183024   20.063015
H   93.329575   66.693657   82.146431
H   13.465762   71.849289   12.528984
H   82.470589   13.926797   34.907784
H   23.677227    1.488379   49.677849
H   90.039001   14.036174   60.434898
H   56.087357   79.748886   30.167603
H    8.670247   78.303154    3.656971
H   60.897827   20.839153    3.706577
H   56.669910   67.160896   76.406136
H   33.345654   72.127312   58.224518
H   90.742332   42.602310   32.682468
H   92.444077   28.294569   60.520489
H   80.810966   36.978470   38.454304
H   54.446583   93.579407   63.783569
H   59.053829   96.836182   71.173386
H   21.555208   33.985725   85.342918
H   13.374058   58.589344    3.538417
H   80.922165   97.624352   73.615318
H   56.507298   47.033142   78.939598
H   11.654541   17.025051   44.384338
H   31.078274    7.078077   32.838463
H   43.161930   85.380814    6.303566
H   48.900276   98.291687   44.771507
H   12.918180   51.093201   11.547071
H   60.529671   25.362587   53.158287
H   41.413940   98.182381   43.011295
H   99.842361    7.257378   21.870331
H   14.245217   44.812279   33.050880
H   52.553604    3.188064   84.354111
H   85.878044   50.707611   26.401608
H   28.014721   13.333943   20.943611
H   76.113647   45.304241   23.309380
H   20.888182   81.253860   68.397827
H   14.596158   65.000290   89.508270
H   87.479408   69.087433   90.954193
H   31.415392   60.225498   62.687336
H   93.205315   92.912956   42.768394
H   85.125153   21.779278    9.234299
H   33.876457    4.407129    5.996406
H    6.897757   89.368568   45.638512
H   32.010788    0.431681   91.170868
H   62.752007   54.111542    1.976099
H   60.374023   85.053558   23.869427
H   79.938538   70.193092   33.138268
H   19.787594   31.956665    5.120315
H    4.013649   35.791012   81.644623
H   44.240730   29.050882   58.415234
H   22.374891   91.792671   79.759010
H   67.641129   22.736057   91.454170
H    2.049704   38.785152   73.648643
H   53.531097   35.771244   88.788422
H    9.027285   81.174484   79.783699
H   17.681534   76.985855   67.342674
H   35.148125   91.004578    7.641667
H   95.242950   41.389328    5.283534
H    8.091254   35.131310   61.507454
H   35.848637   93.300026   90.109360
H    2.162025   38.648865   62.725769
H   36.695267    3.701870   43.579201
H   59.779892   14.889616   87.166389
H   22.856569    2.902077    3.528392
H   29.298088   44.280895   39.390545
H   49.432102   72.730515   29.103109
H    6.988780   78.027351    6.899555
H   32.043274   17.489737   65.020332
H   69.867348    0.426050   31.347431
H    8.222671   97.655914    8.366043
H   64.455833   55.538586   48.714340
H   25.277319   58.945923   75.767586
H   69.762451   58.472301   24.894287
H   50.773106   49.913746   14.533046
