100
TIME:    6.719, STEP:  6719
H   62.943680    5.856391   92.994583
H   14.913654   68.958031    1.759249
H   95.261917   57.295586   44.472073
H   82.604370   55.827850   71.872681
H   34.989578   11.314817   83.526047
H   23.825092   93.928902   44.151470
H    0.828234   15.036011   15.887705
H   91.786140   69.879974   91.277275
H   88.462029   40.289001   77.150414
H   91.239693   12.859463   70.793770
H   75.270020   36.595951   92.541512
H   99.393463   60.479359   14.663383
H   15.313431   55.278477   57.387871
H   22.396210   84.366035   68.559929
H   62.214973   69.858635   27.786060
H   31.368149   24.060829   75.305176
H   83.805031   26.380665   85.045418
H   44.750057   67.892532   66.608437
H   49.914845   60.225632   17.345608
H   11.497253   63.123646   73.793388
H   65.561737   87.319489   74.876167
H    6.537415   53.003555   47.093353
H   96.033867   39.977028   40.112732
H   94.765785   17.207003    8.061623
H   89.274849   53.310493   86.161232
H   15.917330   28.028816   58.591682
H   82.692345   63.178329   33.283222
H   65.611038   70.059914   88.866959
H   57.269142   58.692150   39.560730
H   58.629246   24.544823   17.529800
H   80.491051   24.561619   77.793114
H   89.999115   66.869827   77.252586
H   43.634640   76.888496    3.097538
H   61.995628   57.966446   88.691086
H   13.738825   50.947456   33.840790
H   56.708721   11.689471   98.301979
H   24.238865   58.471313   37.896152
H   86.283836   35.992344   96.583488
H   61.463253   35.019707   93.191620
H   30.339069   83.173203   66.672531
H   76.055725   86.728508    0.642390
H   33.973343   67.951706   22.977310
H   69.110992    3.793225   86.794548
H   50.311909   25.420858   37.683929
H   73.831581   66.792496   31.073633
H   91.395134   91.071487   10.457903
H   94.226852   90.239578   89.960335
H   56.598248   64.573502   84.311584
H   61.430183   75.981911   76.451523
H   66.805908   33.000912   13.739095
H   43.040234   20.967535   24.254955
H   31.669365   40.266418   32.975838
H   48.245480   60.967773   12.639170
H   21.096344   97.573853   28.306549
H    5.817794   47.426331   57.498333
H    1.964266    5.465987   63.896179
H   22.207743   95.672295   95.020164
H   25.744860   42.361137   40.490219
H   20.190643   22.665607   95.665947
H   15.634853   44.233341   72.506248
H   83.540062   66.105240   90.530136
H   60.447487   65.402573   91.339920
H   30.212973   48.790810   72.728455
H    4.420883   78.364334   44.720181
H   99.010452   24.208500   21.280355
H   88.588776    8.251785   43.463562
H   48.490799   80.654724   91.454910
H   16.238670    1.803486   87.409653
H   91.775520   67.001846   38.829060
H   66.507774   86.088310   87.584839
H    8.673365   38.240784   81.550819
H   19.955133   28.534622   48.556076
H   68.899780   85.957275   89.472473
H   82.296974   24.174274    3.933919
H   86.120842   38.220676   10.743622
H   84.498985   38.197636   43.825684
H   77.011322   44.254627    9.904020
H   47.651165   11.380903   85.504875
H   83.713417   33.782902   92.644203
H   70.018997   43.004280   42.073265
H   42.353287   98.792801   81.568192
H   45.484924   88.044495   24.893250
H   42.867455   19.483435   69.827698
H   12.406541   87.118309   49.739681
H   25.169851   28.607704   96.420784
H   96.650620   55.855927    8.370976
H   15.901613   14.826728   43.931267
H   64.089012   67.413757   25.912270
H   95.120468   20.069094   73.238045
H   72.289536   32.838261   64.402512
H   98.991783   36.238594   75.354782
H   75.436859    0.812779   61.546280
H   16.154163   29.122623   38.595161
H   96.632607   20.806726   79.850876
H   40.425529   47.883102   70.481812
H   48.883453   30.405031   20.404083
H   29.279421   53.269272   50.773636
H   25.308100   18.915775   43.997192
H   88.635521   65.816475   82.250618
H   56.552860    6.214994   50.478458
