100
TIME:    5.002, STEP:  5002
H   79.057777   63.312447   94.566544
H   62.332100   75.915588   93.497559
H   65.735260   33.767365   64.632057
H   82.316177   26.568520   65.987923
H   50.368591   73.689865   30.079113
H   50.456722   95.789055   74.111565
H   90.815620   99.095657   81.615921
H   26.738960   21.338833   48.927433
H   30.669228    5.371447   85.228996
H   38.147972   88.204674    3.560937
H   34.981171   67.508896   57.930798
H   64.930779   74.415123   36.880745
H   24.879044   59.109596   27.998047
H    7.412019   89.658302   37.894806
H   41.343300   23.228525   10.330051
H    0.403511   74.235794   17.831318
H   21.876167   12.814929   28.740141
H    8.032393   51.436657   26.130480
H   23.176254   88.192871   26.887056
H   57.752190   99.592812   56.892036
H   67.450951   58.253250   21.481758
H   41.926956   50.724213   93.311798
H   18.960121   53.941277   89.236496
H   54.300701   96.666718   35.580864
H   50.683502   89.475662   73.480751
H   23.744383   78.786224   20.052923
H   30.750460   34.549480   99.212440
H   10.487971   89.916168   32.111824
H   19.935081    2.912853   20.724766
H   92.792740   67.040154   81.033455
H   12.914748   70.593826   13.636620
H   81.586617   14.313588   36.203835
H   22.691090    2.512660   48.416618
H   89.447479   15.319167   61.024712
H   56.435349   80.807175   29.315140
H    7.453284   77.206627    3.701004
H   59.555099   21.351902    2.603447
H   57.248508   67.417030   75.418129
H   33.936642   72.432365   59.581238
H   92.061028   43.912994   31.580942
H   93.400894   27.814238   60.190655
H   82.069206   36.350098   37.796665
H   54.325993   93.495453   62.772385
H   59.947735   96.601196   69.804489
H   22.769602   34.538048   84.144920
H   13.554703   58.322315    3.481507
H   80.812790   96.862999   73.480949
H   56.506550   46.888947   78.073357
H   11.245346   18.184490   44.942856
H   30.784649    6.864988   33.817604
H   43.162998   86.732407    6.155980
H   48.219887   99.590729   45.690620
H   12.627786   51.012024   12.360174
H   60.853844   25.591057   52.540489
H   42.528625   96.955330   42.892200
H   99.824844    7.272104   22.346924
H   13.357694   45.216240   31.719368
H   53.596085    4.510217   84.714706
H   84.773827   50.116089   27.476398
H   28.938534   12.257817   21.341805
H   75.230530   45.955257   24.400887
H   21.385015   81.384171   69.031219
H   13.645696   65.955612   90.468292
H   86.518105   69.011169   91.334229
H   30.859705   61.343708   61.383595
H   94.065361   93.608940   41.940605
H   86.248383   21.295261    8.558342
H   34.843529    3.606426    5.327125
H    6.199970   90.374519   46.516609
H   31.727152   99.727539   91.200348
H   63.196556   55.064087    2.144053
H   61.528336   85.518188   22.844410
H   80.851349   70.885658   33.497261
H   20.095745   32.842670    5.952123
H    3.338667   35.771038   80.583344
H   43.909721   28.153612   59.357204
H   21.103781   93.006050   79.511421
H   66.983383   23.651485   90.681068
H    1.378374   38.826275   73.492485
H   54.217682   36.533772   89.994537
H    8.753340   81.029648   78.946938
H   16.631042   76.894424   68.513329
H   34.262550   90.770447    6.308366
H   94.279724   40.191330    6.562188
H    8.772952   36.007057   62.864601
H   36.170887   92.785835   89.137161
H    1.226990   39.666779   62.058197
H   36.469894    4.822721   43.724785
H   59.489365   15.669100   87.280891
H   24.094355    3.478111    3.027940
H   28.725151   43.524990   39.094891
H   48.396244   71.677567   28.836401
H    6.091363   77.607368    5.816914
H   30.690079   16.640532   64.076332
H   70.109383    1.680113   31.025768
H    7.066318   98.208771    9.089184
H   65.567101   54.735149   49.519485
H   25.225943   58.826721   75.991676
H   70.429382   58.411953   26.066971
H   49.903553   50.272953   15.881728
