100
TIME:    1.229, STEP:  1229
H   34.209633    9.315760   98.020828
H   67.083366   71.380775   55.525173
H    0.880651   62.323177    8.909393
H   81.682892   82.014793   72.798698
H   84.163010   71.267296   32.381172
H    8.958546   99.876625    0.457137
H   88.558556   44.326168   86.562172
H   23.289322   94.926590   95.350838
H   23.416832   68.130035   22.725531
H   41.253899   34.029976   55.818161
H   85.936447   15.693713   21.366308
H    8.931385   85.294243    5.447870
H   65.084244   87.351051    2.976760
H   94.229073    1.288033   50.768307
H   95.449333   60.245441   91.695145
H   52.109085    4.238506   31.022934
H   25.257072   63.272720   85.253105
H   27.407433   34.934525   56.939255
H   64.401985   29.911402   28.111109
H   59.404701   79.714951    0.008720
H   91.346039   33.866676   23.887447
H   80.192314   45.722076   14.607610
H   69.335106   84.626839   97.186096
H    4.854124   51.421665   15.797636
H   85.628288   88.704445   45.630196
H   41.023693   90.989105   73.978058
H   56.101486   91.388809   24.354368
H   28.841949   13.805173    7.396307
H   37.894501   60.596409   99.077629
H   48.118221   60.422195   81.090782
H   64.447121   32.255142   12.159733
H   43.356907   18.557510   85.489403
H   56.927776   78.562965    8.514981
H   30.030067   61.092201   19.975401
H   50.223106   66.017159   99.567307
H   79.411438   81.028336   16.415518
H   97.676445   59.527687    5.305745
H   13.195282   36.459965    9.169283
H   95.468460   54.272469   24.332870
H   47.435051   97.127953   34.729046
H   51.251884   98.353020   71.299240
H   21.165672   67.017815   60.540592
H   21.826933   70.869888   90.245308
H    0.879957   33.367767    0.899509
H   50.048386   83.400375   61.278885
H   62.231693   86.358070   88.162117
H   49.057178   92.037811   38.124947
H   56.305050    8.037123   44.621471
H    0.957474   30.663460   95.448074
H   51.665852   49.455563   97.707848
H   43.450855   50.991707   66.375244
H   64.859962   49.697414   93.379654
H   34.373589   29.134888   31.490887
H   48.230320   87.152855   86.049454
H   42.919670   66.246582   10.835033
H   95.103989   11.240326   50.788742
H   74.164139   54.084770   72.875542
H   34.544373   60.823860   81.898880
H   87.205711   90.696304   17.131977
H   77.916855   22.252645   28.653893
H   37.227398   21.417984   18.573723
H   55.291534   16.505997   39.746902
H   57.596207   23.345089   49.243996
H   27.432100   48.479942   93.771751
H   81.103951   62.687031   10.015203
H   25.845741   81.175880   18.853422
H   88.963272   90.852722   26.398983
H   95.470192   87.824509   24.955908
H   18.154625   61.478226   83.151894
H   55.281662    9.957674   99.145203
H   83.005547   11.779589   47.407505
H   72.629715   10.737329   46.603645
H   26.859043   57.513432   30.235241
H    3.140783   71.607132   30.165474
H   21.427311   30.392420   94.564018
H   54.715488   86.340233   13.233943
H   78.540642   20.025221   12.780760
H   89.720978   70.360588   82.313354
H   20.461329   49.902195   31.392246
H   39.253128   42.020409   15.041617
H   34.932529   41.996227   53.442852
H   33.535786   52.253860   84.008987
H   95.560066   27.769491   46.955997
H   34.714230   17.328714   51.174446
H   92.486862   72.010391   28.614586
H   23.005100   54.199406   27.128899
H   49.236855   13.994621   82.146500
H   75.739639    6.897945   82.966972
H   81.187447   25.743143   18.144779
H   57.678024   58.712746   68.149467
H   74.318275   39.794071   59.415966
H   69.220512   87.938911   56.938385
H   64.138924   64.453659   13.993532
H   66.016212   87.780769    9.684232
H   35.344440   39.643585   44.327049
H   95.431915   47.198784    3.969367
H   65.050095   38.210110   66.508163
H   11.377618   26.701874   36.372490
H   50.165245   42.148029   42.103230
H   15.566483   47.135929   79.315498
