200
TIME:    0.944, STEP:   944
H   31.103437   60.138569   27.377541
H   34.238586   43.155754   18.477348
H    3.382424   99.952118   80.023979
H   41.572800   85.202278   26.090271
H    7.735583    1.572058   43.536674
H   66.716248   33.707329   44.712074
H   13.558928   54.804619   63.277828
H   18.664873   19.285095    0.083659
H   16.017962   76.952026   30.545231
H   86.079056   65.036095   68.303902
H   36.731625    9.632782   15.208733
H   33.688934   60.813614   46.286736
H   28.452984   10.373217   32.438164
H   71.129402   56.177151   76.189629
H   85.633072   77.364021   41.246414
H    8.780361   96.960068   39.136238
H   17.333809   40.688278   81.261276
H   19.845627   17.011288   30.987028
H   88.448761    4.214994   52.847359
H   92.295998   70.036705   10.180051
H   66.533806   11.900940   93.587372
H   74.356178   75.723549   43.445297
H   73.923668   57.422806   32.244118
H   23.519730   94.477638   89.378563
H   33.845810   41.017769   20.289745
H   18.078329   93.579788   83.705086
H   12.529284   72.922737   77.387527
H   10.667451   99.170937    2.583679
H   40.719715   35.131294   34.216049
H   61.236198   39.624142   74.273361
H   12.442364   80.861366   17.055531
H   19.124050   80.006332   10.936186
H   10.113045   24.133677   81.778275
H   73.126747   64.345985   50.595474
H   14.203587   60.711472   28.863321
H   10.055183   33.872147   87.538292
H    6.470279   59.234177   91.240089
H   98.092560   62.966007   83.514923
H   27.015076   21.191963   60.080315
H   83.331284   36.793468   36.196381
H   80.713783   72.336777   24.891548
H   48.380325   28.344103   18.955544
H   64.026077   71.609566   76.469398
H   35.712906   97.426277   43.926044
H   52.831268   97.774155   69.769188
H   31.152693   95.517159   50.344372
H   93.240753   91.720825   11.613677
H   72.976662   65.539864   22.339066
H   14.306540    2.036681   61.673901
H   36.924282   20.978506   75.929382
H   61.461166   61.585472   99.968880
H   94.227226   47.815166   78.677467
H   71.165977   74.290031   17.126205
H   11.928671   97.040146   92.128456
H   47.400070   60.728195   68.005287
H   96.281425   55.005402    1.701114
H    3.421407   19.409523   42.102833
H   75.100082   74.945114   92.596123
H   13.326059   88.077072   24.153202
H   26.820820   92.036049   53.980072
H   48.139488    1.641205   21.667225
H    2.589324   18.092607   54.463478
H   90.842331   39.789612   61.133617
H   41.184013   66.156731   19.385918
H   82.665268   86.574188   46.718006
H   11.123324   43.911491   45.517593
H   59.878273    8.311908    0.380036
H   93.399040   93.050514    1.209648
H   41.563354   15.366797   53.069160
H   41.184475   53.900249   50.944996
H   58.156326   88.768402   92.112396
H   12.354733    5.317411   39.836849
H   99.837540   37.833996   75.922028
H   30.801039   93.490410   81.068275
H   87.717300   12.267699   34.510666
H   71.108192   94.222816   58.277130
H   92.451996   56.158447   62.187077
H    0.480249   18.789396   23.894295
H   16.887682   61.052025   19.330267
H   57.666576   86.740677   60.874908
H   73.247490   18.203733   90.681732
H   57.592525   55.928867   66.093559
H    8.253070   21.388590   69.681572
H    1.716761   84.880104   16.796234
H   13.838638    6.768409   37.831268
H   44.500473   61.142487   13.127924
H   67.407417    4.251089    3.385325
H   69.476997   92.342804   37.995232
H   87.234207   73.770676   79.706055
H   19.918007   17.603418   47.120388
H   11.732172   40.970188   77.623138
H   79.151619   94.712219   13.729008
H   80.704147    8.922279   75.679535
H   28.459112   69.141167   88.435234
H   42.962822   47.403252   97.260582
H   40.117775   43.449287   95.961037
H   88.855400   89.928123   28.648766
H   98.463280   41.260349   57.525681
H   21.065758   62.725784   55.376122
H   79.445152    9.366388   27.422281
H   41.276272   99.891235    2.090303
H   16.749754   87.307449   61.981300
H   37.772659   11.441459   40.340206
H   55.703453   69.239288   18.119801
H   24.405512   18.221024   47.911999
H   15.294535   92.305527   10.930297
H   88.086220   36.955296   50.716274
H   60.602512   61.304405   91.519661
H   90.687675   31.203178   33.174580
H   26.981722   18.244715    8.982821
H   56.456993   89.949104    1.291166
H   14.261032   81.048523   98.530205
H   44.866745   88.444092   78.622383
H   60.839409    4.220062   56.800751
H   40.357094   11.283717    2.088077
H   85.308205   85.203804   10.693958
H    3.629831   18.355894   92.387131
H   37.199337   61.648090   19.906242
H   45.597618   84.144760   48.746891
H   89.361244   60.725643   75.605911
H   47.902229   26.437656   64.450981
H   87.914032   10.802784   68.895782
H   49.209053   92.130814   44.914135
H   93.705414   41.985710   87.035637
H   55.850945   91.522087   69.529442
H   73.513275   81.614563   11.938950
H   77.887611   52.477036   43.866287
H   60.029747   93.091454   40.948376
H    1.131333   27.000515   68.846809
H    1.867744   20.812553   78.495262
H   77.027412   60.048981   30.315151
H   54.678032   93.033798   25.929035
H   90.138924   16.845537    2.612830
H   66.400543   31.052700   58.371258
H   39.204105   88.640656   24.066788
H   43.607590    0.723332   73.310020
H   70.058243   88.358467   90.385048
H   97.223228   42.239750   72.074837
H   64.714600   54.178848   71.383583
H   43.829292   75.326683   75.895966
H   85.470688   42.365784   37.651123
H   24.829414   62.401207   62.658268
H   32.374397   69.717567   75.638641
H   25.454292    1.044015   89.790443
H   73.393250   46.418930   72.089050
H   71.735619   74.104111   96.128746
H   61.381645   93.694786   42.241123
H   23.429298   47.213127   64.785912
H   84.005585   35.399040   90.945923
H   31.903557   96.360832   63.651718
H   51.407135   73.266006   46.029499
H   63.422379   87.629326   26.090561
H    8.880461    5.514858   78.751846
H   28.519608   17.302156   58.554707
H   41.528797   72.472305   73.488762
H   84.401024   45.274509   75.721344
H   66.680405   81.996964   89.091721
H   56.055099   25.364487   26.217419
H   80.160789   99.081467   76.496223
H   55.786854   28.219030    5.257265
H   60.871231   55.808311   64.697624
H   10.549524   19.407986   29.445099
H   95.523064    3.875644   36.939327
H   37.115967   40.861057   41.079742
H   52.213463   45.976303   16.741770
H   24.042969   42.039150   58.453434
H   62.777275   86.180244   59.684834
H   24.247204   62.963081   77.124039
H    3.639637   25.880781   35.194580
H   58.600151    5.147031   82.475616
H   65.915771   14.006011   35.916992
H   21.842066   39.298088   59.619980
H   51.275238   47.202747   70.615433
H   62.556541   57.700279   90.572769
H   38.717163   89.740646   66.129372
H   22.638054   51.469734   23.978058
H   28.185566   74.914429   16.356201
H    7.969473    9.872246   73.882156
H   57.596706    5.013391   60.901966
H   52.812660   62.006859   96.316154
H   68.564789   10.418077   25.351437
H   33.427361   30.965420   95.316849
H   33.219372   89.423370   20.014847
H   66.811928   26.522976    3.089625
H   94.626968   57.799713   75.496445
H   13.998253   42.164200   87.477638
H   55.865662   92.466133   14.864126
H   56.599274   97.044868   50.160713
H   86.230141   64.312538   74.589310
H   62.415573   54.443722   74.597549
H   81.449982    7.732602   74.274117
H   41.881676    4.061211   15.657372
H   19.737984   34.272621   73.934578
H   22.804766   91.627319   47.501026
H   60.735062   22.810661   19.513428
H   77.046890   12.110924   19.921230
H   14.140845    4.756164   27.228498
H    8.449404   83.414482   27.112465
H    2.525336   13.581743   46.531715
H    0.665041   11.141361   87.968033
