100
TIME:    0.635, STEP:   635
H   74.380043   63.788582   98.564651
H   83.606529   39.173885   18.055754
H   90.674622   19.588394   15.883926
H   81.583191    6.487436    5.356084
H   89.483414   23.655571   48.487404
H   18.169552    0.522530   41.631847
H   19.690559    4.214954   40.110600
H   69.976547   43.537098   49.891060
H   38.018486   25.240845   60.117348
H   57.487022   25.502743   32.556122
H   41.188873   91.793274   78.582619
H   31.604282   55.519920   47.728737
H    2.870670   23.289185   62.014214
H   23.640232    3.119416    5.563000
H   88.225548   13.303351   20.248083
H   75.991989   56.196285   80.329575
H   73.013496   23.990555   31.169920
H   14.713807   63.820602   77.532028
H   55.152260    4.990771   96.818039
H   75.460518   92.218353   59.509010
H   26.594742   93.000702   40.008415
H   23.235889   44.938065   65.187569
H   77.265862   89.457802   14.181522
H   60.043152   44.297581   59.915291
H    6.873140   35.814236   41.247818
H   43.747341    8.689075   29.655024
H    7.321615   16.080452   12.566999
H   78.961143   86.078842   87.763596
H   24.978699    6.704393   27.154995
H   25.341753   75.123550   33.868801
H   41.080845   78.986382   59.163231
H    5.851514   34.967377   40.478935
H   15.086000   22.022455   55.002769
H    4.932127   15.528605   44.999245
H   64.987907   10.919106   63.394073
H   27.766171   34.368298   18.459387
H   40.703747   81.280617   58.500805
H   37.744499   47.331898   67.250420
H   22.172615   66.952614   81.265259
H    3.383903   52.737202   87.994682
H   91.846863   77.968712   57.302685
H   74.550987   40.357391   32.633396
H   16.710463   67.307846   47.339417
H   38.809875   23.413225   42.819221
H    1.574327    6.838204   10.445967
H   69.841469   75.141411   85.808449
H   42.785084   59.996990   33.049263
H   56.273327    1.921282    7.868089
H   83.591606   79.858261   19.143190
H   39.207767   40.414501   39.251740
H   43.496174    8.338182   60.112217
H   35.992012    4.815324   32.375458
H   22.051462   25.690674   65.991646
H   61.984516   96.841972   59.837177
H   90.207123   14.171946    5.794472
H   94.360764   11.864590   71.009903
H   36.507690   71.224266   16.381371
H   78.775330   16.919167   97.198441
H   40.357628   65.598862   62.735348
H   17.115837   76.596481   45.548668
H   99.756516   49.039673   64.884888
H   76.373749   22.034866   66.624924
H   17.304264   63.851341   89.994484
H   86.643745   45.248726    9.898893
H   57.527969   10.127304   54.698143
H   62.336281   10.705341   83.732018
H   36.621819   70.314331   97.719406
H   36.502098   53.853683   96.559273
H   88.550224    4.159264   20.405811
H   43.249573   80.082664    0.395455
H    1.867335   52.198116   54.531590
H   21.608690   30.451225    3.112829
H   65.588623   86.897011   45.466824
H   16.214104    9.195097   65.468666
H   92.788132   29.547228   49.535450
H   40.671253   48.270737   53.201405
H   24.608505   71.507683    2.270289
H   61.813782    9.199257   49.509747
H   91.989082   51.642429   24.768932
H   68.383926   74.371910   66.215363
H   23.308308   35.851025   17.941154
H   88.967674   48.374588   33.680153
H   57.973545   17.856047   90.380554
H   93.851471   66.499367    5.429878
H   21.410364    9.163455   86.196404
H   36.677723   32.378498   85.879494
H    9.564947   57.183250   53.822369
H   66.177414   54.454308   89.139366
H   68.860786   58.816231   23.005199
H   10.193645   83.156616   46.913174
H   50.009373    7.720386   46.871777
H   25.270525   43.263832   45.622330
H   26.026333   46.656929   68.040123
H    8.602383   51.750938   69.632301
H   45.613636   92.849701   30.677307
H   46.369995   70.655693   34.650505
H   12.199278    4.121851    0.669346
H    9.196660   21.644318   45.875801
H   78.462181   39.587528   91.861061
H   78.677109   62.394703   36.526718
