100
TIME:    3.609, STEP:  3609
H   73.260406   91.057709   95.841873
H    0.878645    0.418154    5.654562
H   41.790176   33.549385   80.977531
H   82.082367   83.958855   42.341770
H   62.845566   62.034771   67.849854
H   72.058968   97.298195   36.157272
H   63.820835    5.033703   72.681435
H   36.226013    0.827077   76.827980
H   64.911827   39.302826   72.914207
H   76.216560   68.203255   49.015785
H   64.554642   11.458380   92.112419
H   18.094353    4.591264   36.035988
H   13.694314   43.357956   66.422905
H   76.384529   93.951912   31.886677
H   24.400288   47.656693   77.291878
H   56.414597   96.072624   33.463234
H   33.892921   20.678493    1.929860
H   78.262779   19.195183   74.425964
H    1.480101   29.755297   53.497143
H   95.287621   29.175200   62.050133
H   50.113541   96.929382   59.286133
H    8.378693   48.874985   11.938553
H   37.558678   65.270454   29.093361
H   83.726280   79.965973   39.037952
H    0.506347   99.946625   63.193092
H   30.109186   20.073839   50.898796
H   50.871243   92.454849   71.580299
H   28.025221   24.895615   86.065941
H   89.644684   76.528793   86.573372
H   39.377686    1.516665   70.293793
H   58.093845   45.681271   23.846352
H   93.631783   52.796776   65.160851
H   24.570208    4.431102   22.924177
H   30.590893   42.979378   19.709488
H   91.060547   86.107292   44.490570
H   86.347389   67.992157    8.229211
H   25.949398   72.366196   92.840508
H   14.826324   92.902367   77.118065
H   92.734772    2.784719   94.573677
H   23.266312   74.321320   21.982492
H   88.602570   80.016632   27.372175
H    7.264816   73.833298   72.355225
H   42.327267   85.142044   62.154331
H   48.899673   73.256592   33.603081
H   43.601429   89.499054   64.942688
H   31.526585   31.752949   97.822151
H   69.929977   21.107658   60.108154
H   56.432156   32.541489   91.882423
H   70.522507   33.552055    0.508430
H    1.568973   85.669823   31.246159
H   43.269276   21.217972   91.469543
H   80.523651   28.850677   37.138103
H   83.737816   42.934937   93.264076
H   93.118645   48.323807   91.072357
H   53.439499   74.869324   31.042692
H   98.081894    8.738073   69.767929
H   25.047014   85.410378   99.233269
H   57.322502   36.062424   20.595921
H   74.910362   91.257294   34.418026
H   20.862534    5.186926   60.962044
H   87.358864   10.737716   33.009731
H   70.824150   94.350021   32.058624
H   19.074896   61.011528   85.990501
H   90.862968   61.426567   29.155941
H   75.571022   72.599892   31.659994
H   79.638649   62.858742   59.576050
H   98.011215   73.133331   41.305401
H   31.067589   23.940092   38.733669
H   36.774567   90.466614   33.882481
H    3.505183   29.664400   94.133606
H    7.429684   49.843681   18.855793
H   76.388046   31.749588   20.855419
H   71.677856   39.789829   69.215569
H   50.765240   20.994347   88.719963
H   36.176044   33.783649   74.984535
H   10.974742   38.875755   53.088825
H   94.628548   13.742123   54.876301
H    1.537712   14.736448   13.750576
H   34.577217   42.917957   57.950584
H   22.533302   12.399372   10.002621
H   81.500870   66.618423   95.690735
H   12.111297   67.797073   84.994873
H   46.140400   67.498138   73.639343
H   98.444031   20.988956   33.790398
H   76.600769   23.139103   97.900452
H   68.233398   41.619217   92.403000
H    8.191687   40.949226   95.634262
H   14.049604   16.348862   58.210403
H   30.581635   93.229286   98.673836
H   47.254810   60.793549   53.229027
H   71.717743   68.305794    9.677285
H   45.323959   66.921440    2.293831
H   16.798138   35.805199   98.093956
H   96.050819   32.144798   70.153847
H   94.191856   26.457279   99.018822
H   92.010162   53.215523   81.039284
H   76.137024   74.793770   29.632875
H   20.113997   46.966156   98.288689
H   36.788872   52.407276   42.745720
H   63.378277   86.020607   50.073845
