100
TIME:    8.642, STEP:  8642
H   32.898430   29.508429   91.234024
H   61.805313   73.162369   23.010345
H   28.318956   95.644516   21.896187
H   82.927139   76.599724   66.466743
H   17.759378   65.451660   31.384243
H   94.003174   91.845573   34.591972
H    0.043721   44.887787   66.268822
H   40.642136   36.244556   14.713483
H   41.191017   55.399628   56.105106
H   38.716347   40.471317   46.089973
H   96.397247   13.972011    7.308691
H   25.999893   56.869366   77.782234
H   92.677902   38.897957   66.288193
H   27.180815   78.438820   14.899593
H   85.571724   98.086800   35.306831
H   54.047424   55.868065   15.679218
H   29.168892   53.570896   60.103706
H   85.865982   74.319298   99.953201
H   79.866791   40.896526   18.656437
H   59.682606   22.291601    4.720133
H   51.448189   95.878326   22.685896
H   90.897301   55.556366   83.332169
H   70.359047   24.340990   85.092056
H   16.091139   40.211639   65.245163
H   20.496902    0.805519    0.362900
H    6.859142   71.337326   77.631897
H   16.869253   83.239700   71.440475
H    3.355360   59.819050   52.432472
H   99.082420   33.161495   48.659630
H   32.364891   76.949814   70.402863
H   56.174274   97.000984   25.651543
H   11.418402   13.744011   99.230873
H   79.088150   36.192055   76.336563
H   43.247604   81.735016    7.678221
H   65.880196    5.349330   50.839687
H   23.871622   62.310715   92.257393
H    8.679593   88.045662   89.421227
H    6.803251    0.797335   32.283066
H   80.290947   93.123985    6.838631
H   49.213249    3.147750   17.968767
H   44.631668   52.708595   45.946255
H   71.913177   75.492767   21.150665
H   85.660248   15.328571   25.694042
H   27.523380   57.702377   25.703617
H    7.026683   90.928246   95.630058
H   66.571251   27.744576   18.270384
H    9.256326   94.818916    8.421848
H   56.715084   84.379791    3.295494
H   17.645676   16.720184   99.739929
H    7.179434   62.270206   79.284477
H   42.908192   35.314552   44.527924
H   25.130362   61.826389    6.742527
H   88.127937   72.117981    0.958143
H   76.561157   66.206558   13.164050
H   52.706184   15.948178   73.848022
H    4.359360    3.443178   98.432709
H   44.116577   40.185341   77.913521
H   82.554871   60.757027   90.956200
H   71.852928    3.923311   48.039886
H   88.736183   92.040512   17.811546
H    4.844192   76.677368   40.597363
H   92.196434   47.503555    4.330738
H   60.767246   17.568316   40.862579
H   36.470333   88.839661   92.507889
H   75.340103   70.622650    0.360314
H   70.457222   12.653869   57.166843
H   94.204239   47.137630   84.297470
H   83.403610   11.782353   79.340179
H   87.617920   28.827324   18.220932
H    5.539419   82.709366   83.514069
H   47.606647    7.397984   58.487495
H   61.618568   64.651756   89.501144
H   43.516953   90.842583   40.169598
H   39.963863    2.468246   89.675758
H   78.765228   41.040104   56.543873
H   29.959375   61.445366   14.432778
H   51.660965   77.813721   44.010101
H   37.993137   85.646080   91.711975
H   75.927711   28.134441   14.100950
H   75.713707   38.249199   76.405235
H   79.996803   18.687815   96.503479
H   89.785019    0.515650   64.013161
H   64.501366   51.642979   52.964169
H   44.704735   51.674049   74.103569
H   31.537277    8.312429   10.008614
H   52.398052   26.488136   41.910004
H   44.334492   75.008354   35.627174
H   95.016167   13.532383    5.973752
H   35.031986   12.999819   57.510384
H    2.269410   53.722473   33.148033
H   77.688927   40.073193   15.965354
H   17.719385   45.440125   98.194267
H   39.422276   86.819145   87.303711
H   82.481064   37.473011    9.515352
H    7.174873   75.632370   14.670622
H    7.715404   54.468567   21.078621
H   76.641136   63.625389   40.179588
H   21.596254   14.066838    5.391878
H   97.028252   74.120445   21.179089
H   75.998489   56.863926   65.229782
