100
TIME:    1.773, STEP:  1773
H   97.422028   59.428177   97.522781
H   51.951042    0.873527   89.840599
H   10.231123    1.461287    2.522367
H   81.774200   59.602684   42.979366
H   79.290451   14.871282   17.631393
H    0.522501   99.287270   54.332439
H   60.045948   81.059349   29.103767
H   80.531990   41.988605   45.403488
H   10.044273   15.826809   88.482948
H   26.387983   41.841011   77.119560
H   35.334885   37.582859   68.964340
H   88.169388   12.561840   66.724968
H   30.482216   54.438454   48.906792
H   67.293037   99.610970   92.165627
H    2.065609   11.655855   65.547684
H   30.236526   56.657433   85.866959
H   81.520920   99.248306   34.782249
H   39.032677    8.479639   38.079880
H   72.877083   52.734398   56.769558
H   44.749672   68.160263   37.046700
H   59.064301   79.709839    9.122433
H   32.354740   46.440094   68.288185
H   62.071922   80.202522   81.622131
H   54.310616   57.946079   75.396439
H   66.171257   45.558762   49.643623
H   38.529308   74.777679   22.989332
H    9.190632   68.777481   35.149532
H   82.941147   39.197353   25.377855
H   49.723114    9.952622   73.361809
H   68.978081   46.958328   24.336758
H   85.846535   81.038834   69.112396
H   77.705536    3.528239   35.128563
H   95.244949   38.760719   57.522797
H   53.014931   11.237808   97.058167
H   36.701134   24.895088   32.691643
H   26.710442   23.761984   14.544660
H   49.852386   39.605812   48.170719
H   90.710304   26.503178   47.556431
H   71.014359   42.659676   72.193985
H   96.196892   46.201206   77.530716
H   14.076836   17.019373   84.115646
H   72.274048   91.430412   86.098694
H   26.512724   74.132095   29.539330
H   66.141228   42.486176   54.087978
H    2.861319   61.934956    7.830263
H   55.213383   96.734047   90.370125
H   54.801319   21.383669   42.773384
H   56.334103   13.638075   78.281136
H   16.857809   85.609581   73.749832
H   63.075275   57.735592   59.657543
H   43.409351   98.471413   72.111084
H   91.297951   99.217514   57.668957
H   45.658501   32.289185   99.896019
H   35.633884   78.279320   10.054480
H   99.610733   13.935255   15.451305
H   95.784653   10.668610   32.269699
H    8.653101   38.387993   24.614614
H   94.035980    9.449431   67.887161
H   30.109566   13.681827   75.369888
H   42.018520   64.067825   13.181426
H   71.542831   96.120064   76.158165
H   35.983917   11.441586   15.130973
H   94.493896   86.247704   11.923570
H   64.789429   51.439171   79.004662
H    2.694570   19.237202   60.678120
H   92.427193   54.131935   51.018948
H   45.317764    9.660905   52.663097
H   57.892555   18.936996   50.962254
H   45.269127   22.389847   49.033859
H   66.301819   37.319756   97.999695
H   65.731621   74.765739   40.883091
H   27.775450   92.682510   86.432610
H   91.388321   30.606449   16.285778
H   91.170189   37.180557   97.833900
H   47.654465   31.166468   35.803814
H   67.576393   21.204889   76.628532
H   27.931528   72.875961   22.404688
H   15.279094   34.788330   12.355262
H   46.538231   48.308445   37.459908
H   12.574284   12.392145   68.175667
H   45.578281   47.624157   85.957008
H   74.353821   55.806595   38.520706
H   29.980442   36.849579   98.769470
H   72.137398   63.879498    1.485968
H   65.999069   37.982315   75.880020
H   10.483372   74.181419   64.905754
H   85.569374   74.441376    8.086641
H   84.496964   63.343918   77.312477
H   92.476509   95.454842   13.694023
H    9.581030   36.329689   87.598198
H   96.580971   69.167114   70.904251
H    9.471163   28.852007   67.303230
H   99.043709   80.756393   56.079330
H   18.594570   20.777781   46.362495
H   25.938316   90.914703   56.828026
H   40.364136   25.716970   75.871109
H   21.869919   69.429344   35.222519
H   13.374993   31.333710   27.668087
H   24.250828   44.493000   96.535690
H   49.350662   33.161564   26.920765
