100
TIME:    6.644, STEP:  6644
H   68.015701   12.734125   93.063248
H   16.984749   64.894234   97.030434
H   93.972168   51.899696   45.352695
H   82.591782   58.917755   75.983398
H   35.661346    5.303268   85.559662
H   24.988384   94.010155   36.723682
H    4.758922    9.971571   10.022608
H   97.680992   63.391232   98.163185
H   90.305672   47.499924   81.871101
H   93.288185   11.782431   67.857216
H   82.246338   33.578144   99.766167
H    2.256072   56.719975   20.001766
H   20.099350   59.814342   64.840263
H   26.109531   84.597206   62.852642
H   61.304024   76.558006   31.392666
H   34.383728   30.620583   81.530762
H   89.836067   21.420223   78.217873
H   43.146168   71.542053   69.208534
H   48.746975   57.079079   13.394534
H   13.517708   64.716347   68.687035
H   70.012344   94.785614   76.912071
H   99.347092   52.903992   53.480301
H   97.035225   40.586998   42.258499
H    1.734176   16.309786   13.631891
H   91.957344   59.258560   85.607338
H   16.259222   30.246109   65.644234
H   89.159401   66.295853   31.794920
H   71.939621   66.559166   86.388168
H   55.638359   51.887493   43.106110
H   55.753345   26.401054   11.567715
H   77.539619   17.836212   83.726875
H   85.263550   68.942352   84.195717
H   38.351475   82.375938   96.340942
H   58.826759   64.839767   91.850800
H   15.605499   56.626015   29.277460
H   50.189022    5.815050   98.537727
H   17.045395   61.217896   31.986425
H   89.384041   37.365063   91.290596
H   64.629150   36.653923    0.459746
H   37.403004   90.194153   60.771641
H   81.181534   84.154732   98.875465
H   40.293915   67.657593   19.148403
H   68.465546    3.343293   81.376915
H   55.100689   24.162008   30.351065
H   80.337547   69.751938   24.655500
H   92.363304   89.640976   10.153204
H   93.640915   86.160904   89.240501
H   56.594242   63.801025   79.671005
H   59.238068   82.193764   79.443008
H   65.231201   31.859327   18.983126
H   43.045383   28.208498   23.464455
H   28.023563   47.226143   37.899086
H   46.689655   60.532898   16.995077
H   22.832985   98.797226   24.997204
H   11.789581   40.853416   56.860325
H    1.870853    5.544880   66.449356
H   17.453295   97.836372   87.887062
H   31.329290   49.443886   42.421982
H   14.275723   19.496166    1.423495
H   20.583862   38.468380   74.639427
H   78.809074   69.593399   96.378067
H   63.109383   66.100662   94.733093
H   25.121210   53.908607   77.871429
H   99.270737   77.955780   46.756657
H   96.033844   30.198624   14.295741
H   93.196167   11.980127   39.028976
H   54.508102   78.061493   87.834000
H   21.419411   97.514137   83.824219
H   88.037880   72.390869   43.533154
H   64.987999   82.316338   87.742767
H   11.055023   43.343704   82.450325
H   26.139235   31.023712   43.064629
H   73.789841   89.667450   91.395081
H   83.948357   28.920998    8.390028
H   82.504509   38.113674    5.057948
H   82.726295   33.390545   48.871956
H   70.199799   50.746288    8.573931
H   44.127529   16.284983   81.363258
H   80.116539   34.003201   91.807640
H   73.697128   47.089821   48.534599
H   40.885582   98.016891   77.085541
H   39.857292   87.558121   31.167759
H   38.123306   18.229162   62.685333
H    7.246686   80.700462   56.589542
H   28.821947   33.299210    3.691159
H   98.376389   53.100761    3.162633
H   10.892534   20.279869   40.354988
H   62.882805   73.415039   26.689896
H   93.564072   24.244757   73.851448
H   78.920242   35.924160   61.721649
H   95.922478   32.189102   73.770920
H   69.887619   95.172012   60.117485
H   11.346639   26.872143   32.795296
H   89.383919   16.256556   74.793732
H   41.722145   54.601357   68.758331
H   42.688766   33.366608   24.277908
H   35.232506   48.965149   55.086914
H   25.452868   15.204743   45.502663
H   92.208366   65.492607   88.532280
H   51.894543    8.139538   57.703686
