100
TIME:    4.064, STEP:  4064
H   42.490143   49.331787   95.425308
H   88.238167   25.085558   34.353714
H   49.611183   66.284447   75.638557
H   82.158737   65.213432   17.400961
H   58.770172   98.505028   55.512589
H   65.005135   96.805260   81.217857
H   39.975964   35.758572    8.263101
H    0.463908   40.189266   35.051052
H   53.727058   95.556259   44.272976
H   63.782097   74.736382   66.833801
H   22.231644   29.766193   48.284092
H    0.727100   27.397760    3.649528
H   84.734940   15.831993   21.202713
H   53.855309   92.549477   66.513382
H   29.935394    7.014726   55.420856
H   38.120453   56.276787   95.693298
H   97.304329   50.771839   43.350304
H   87.982628   97.068169   58.650860
H    8.566521   48.844383   77.468933
H   83.026726   19.512629   93.028679
H   23.113190   51.633938   46.938454
H   51.999985   49.479004   73.191147
H   31.483772   61.569969   16.073971
H   41.451881   85.422974    5.244362
H   84.232574   63.865143   66.553383
H   28.021154    6.516946    8.252151
H   11.635199   73.542801   80.605873
H   89.633453   46.133484    1.104124
H   99.538101   17.809948   65.064735
H   56.824814   90.255424    6.465264
H   76.000343   86.482246   87.848198
H   22.360487   40.226929   23.039192
H   56.621006   71.140800   63.914169
H   49.815491    1.281476    0.542155
H   79.750809   51.712914   72.196640
H   25.912996    3.733629    6.658785
H   69.588730   55.703598   28.692495
H   96.020485   84.578011    9.227428
H   73.531128   92.870964   50.480278
H   80.409691   31.724934   57.782291
H   57.505997   95.630875   38.091778
H   66.371964   94.251923   93.731949
H   46.246449   87.870544   95.021111
H   19.844995   80.879730   78.090698
H    4.134146   71.545105    3.877796
H   25.656490   40.431385   99.668922
H   73.484665   45.852379   64.478233
H   56.456455   37.227844   20.035179
H   83.824814   95.869843   82.360016
H   11.111781   92.591743   99.423927
H   43.234562   77.290382   96.266983
H    2.636103   86.630554    7.266937
H   93.173012   45.573181   66.839973
H   82.579552   40.898537   11.149837
H   17.212234   14.747210   34.912846
H   98.651199    8.259024   54.278656
H   53.890667   72.281639   42.507729
H   23.441887   93.092705    8.875353
H   10.796400   10.482409   99.487221
H   90.837097   40.161022   48.020760
H   16.060682   89.577538   97.535133
H   54.675316   90.114944   11.470094
H   49.965931   29.963440   54.789787
H   22.106653   63.901657   16.801319
H   93.629112   36.258892   74.031609
H   51.687141   40.239265   86.479202
H   61.506241   88.865601   63.272259
H   99.637321   49.962051   60.485302
H   59.453056   57.773209    5.344635
H   12.723406   52.550995   93.175507
H   92.981377   18.885227   13.397057
H   38.871758   16.649109   54.169621
H   42.011490   17.284908   57.549828
H   40.746853   92.201378   61.684898
H   58.111660   34.432796    9.476493
H   21.732126   68.038292   22.474232
H   35.939644   74.306686   62.922947
H   22.914440   84.985817   38.879776
H   56.394806   41.581478   63.029205
H    0.218844   87.619804   70.804008
H   90.401474   71.325607   22.884504
H   46.252167   70.768570   46.948608
H   74.927193   75.093506   16.975903
H   29.747236   59.924385   92.233658
H   54.446457   94.678413   53.793167
H   57.761662   58.333885   23.999863
H   38.580101    7.867027   17.330870
H   21.372469   79.920662   53.478920
H   40.024033   67.895195   94.952522
H    7.025935   42.072426   69.493591
H   90.338196   92.876183   19.286051
H   78.991272    1.135400   10.964214
H   45.963722   49.458115   33.279888
H   40.029095   59.745697    0.833798
H   86.325722   85.701164    9.473811
H   29.591354   35.247688   57.538078
H   40.020844    0.905420    3.464334
H   21.783728   50.840210   91.005745
H   15.113609   54.368603    4.633499
H   91.642128   74.342903    6.241626
