100
TIME:    9.935, STEP:  9935
H   45.458160   10.935197   90.050247
H   26.095528   43.227886    4.537838
H   50.544369   88.667976    6.717672
H   83.144165   23.328962   95.590836
H    6.173162   69.091049   96.328026
H   73.957886   90.444771   62.643044
H   32.277119   32.197090   67.383118
H   39.014893   48.105068   95.994484
H    9.406609   31.082268   74.715492
H    3.396352   59.036884   96.716164
H   76.125458   65.997391   82.757057
H   76.650932   21.680077   85.745201
H   10.227671   60.635414   37.794983
H   63.159698   74.453438   13.297413
H    1.276688   82.589661   73.124535
H    2.057167   42.777573    8.348760
H   25.193520   39.093437   77.810593
H   13.521415   11.401739   55.129471
H    0.010727   95.137436   86.787476
H   24.849972   94.832001   92.753624
H   74.719238   67.158333   87.589005
H   14.858475   57.272842   73.221268
H   53.095261   13.827101   48.120430
H   95.952881   55.679657   69.215881
H   74.252060   98.264465    9.907284
H    0.759898   33.219711   55.954754
H    5.372433   29.490126   97.088974
H   94.255531   20.171925   95.169487
H   27.198254   50.472752   87.539719
H   81.945412   44.948380   73.192696
H    7.059486   12.946815   23.353516
H   93.059402   78.016800   79.531380
H   70.166542   41.590134   92.820213
H   97.878906   63.239220   53.205315
H   33.701195    7.451034   29.506598
H   36.269474   63.587650   88.193092
H   32.695068   40.694588   91.304581
H   53.358601   77.141258   23.526672
H   25.711910   64.950096   81.537346
H   27.427826   82.101486   19.699396
H   56.264404   97.077988   76.408775
H   62.945923   80.568771   87.148918
H   96.787750   23.087029   19.088398
H   44.969196   79.407814   52.123951
H   94.840515   39.877262    6.261867
H   49.888344   52.405743   23.523394
H   19.366108   65.142029   20.838213
H   56.794003   97.697281   83.298691
H   55.437836    9.636732   48.142303
H   34.318321   81.959496   88.877815
H   46.601841   10.767265   52.347992
H   87.969727   41.844948   21.864866
H   14.944534   79.615234   25.862671
H   46.617332   45.106766   70.220467
H   49.755623   29.260450   84.837418
H    5.969790    2.083068   54.415939
H   26.088043    2.875942    0.888526
H   86.275589   38.649223   57.652611
H   73.833824   58.562035   48.775501
H    3.412245   91.424850   81.035561
H   86.411591   16.548021   39.792408
H   46.305351   35.468491   45.828850
H   48.575962   29.382055   52.218918
H   25.258385   95.883133   57.407051
H   26.659428   67.351814   20.771803
H   91.027405   48.375267   33.619595
H   90.464424   91.841217   46.724377
H   94.087212   85.730293   41.153061
H   52.062317   35.920593   37.127193
H   31.799652   47.652622   80.771652
H    6.541990   19.418087   42.980019
H   55.143242   21.720116   84.276886
H   59.211960   26.884504    7.013981
H   11.503895   20.634525   12.849871
H   41.049095   42.944012   54.579945
H   60.530411   44.313450   27.430206
H   69.092720   65.901779   66.944511
H   98.736397    1.104604   63.124596
H   37.932373   24.336491   28.532839
H   12.304116   67.812660   65.012123
H    5.309400   32.064495   73.784859
H   86.810081    8.909501   55.840889
H   46.284378   73.266640   76.102615
H   33.661465   62.318802   56.007866
H   68.580078   27.426262   84.667526
H   22.635929   73.984535   31.699894
H   30.691103   80.996407   97.282219
H   15.809689   10.069018   92.573074
H   61.864262   41.006935   46.935310
H   87.951416    0.521570   79.367935
H   30.604452    9.891839   43.271141
H   13.388292   42.686096   22.827723
H   22.306019   25.614027   87.293388
H    3.658653   15.631303    2.512427
H   84.820007   59.813797   44.380653
H   14.511901    3.410584   54.293289
H   74.008842   37.826874   65.817078
H   19.100458   78.043655   79.428734
H   35.432396   79.703926   12.876667
H   56.311325   23.687344   40.670101
