100
TIME:    8.482, STEP:  8482
H   43.718742   44.181175   91.380508
H   66.224258   64.492935   12.921844
H   25.568712   84.133286   23.774239
H   82.900284   83.191521   75.236275
H   19.193094   52.626957   35.722534
H   96.483643   92.018913   18.746536
H    8.429181   34.083344   53.756611
H   53.217819   22.403002   29.404617
H   45.124123   70.782928   66.176865
H   43.086464   38.173954   39.825325
H   11.280045    7.534316   22.720678
H   32.107071   48.849346   89.171394
H    2.880603   48.581795   82.189072
H   35.102806   78.931984    2.723088
H   83.628365   12.378769   43.000923
H   60.480530   69.862206   28.961071
H   42.035103   42.988621   45.538277
H   82.445572   82.104942    5.499277
H   77.374115   34.183880   10.227481
H   63.992908   25.689428   93.826637
H   60.942818   11.806911   27.028547
H   75.557945   55.343964   96.957657
H   72.495277   25.641649   89.669693
H   30.957472   38.297577   77.127487
H   26.218948   13.494728   99.181435
H    7.613842   76.054123   92.688049
H   30.666250   89.890091   68.266647
H   16.855440   52.350788   47.143166
H   95.603416   18.645456   56.223106
H   26.230209   80.909775   57.683136
H   49.876667   82.652840   38.310234
H    1.316070   18.164333   14.042809
H   67.818619   47.898598   61.922501
H   36.487350   96.398102   14.418341
H   69.862129   17.463554   41.104580
H    9.963541   49.777756   92.760323
H   93.333336   93.905037   76.813805
H   13.416105    3.725573   20.992783
H   87.043877   96.610313   22.343391
H   64.282852   18.126650    5.380265
H   55.566727   47.219093   42.176723
H   85.397064   74.865326   12.982331
H   84.283295   14.368793   14.137594
H   37.739445   55.015610   10.060306
H   20.905457   97.239281   81.938652
H   68.636681   24.693428   17.620359
H    8.005410   86.117744    6.885399
H   56.705318   82.731842   93.395668
H   12.969162   29.970917    6.122601
H    3.820975   59.834904   90.471001
H   42.919178   50.761330   42.840912
H   17.353872   76.672760   17.245815
H   84.810066   71.190247   10.250746
H   80.267212   68.816422    6.104113
H   65.445442    1.926268   72.488159
H    4.160080    3.611483    3.879501
H   33.973755   44.802040   62.696236
H   94.468933   75.866890   95.077293
H   59.233303   97.162621   60.323822
H   99.295265   79.743149   22.362328
H   94.751266   84.118774   53.071728
H   97.875145   48.992813   11.570423
H   49.904209   28.486895   51.834259
H   25.483147   87.968079   96.851151
H   68.990005   83.400970   85.460403
H   80.286324   20.607841   47.706394
H    7.041426   41.606625   76.572861
H   94.455856    2.631431   71.691254
H   79.644287   40.323906   28.256332
H    2.289795   74.672256   83.853424
H   52.688435   18.285057   60.406441
H   74.794617   69.964256   77.772629
H   53.949081   98.757622   44.272381
H   43.485592   12.594505   99.182594
H   71.057709   40.804508   44.412525
H   26.176416   51.190239   25.198725
H   37.129715   91.661377   41.171967
H   30.477144   96.107506   82.874084
H   68.254372   28.604412   12.315367
H   83.560387   46.965019   90.189415
H   76.864479   17.032541   86.940491
H   77.778183   99.477524   77.399391
H   54.380577   48.967197   37.726131
H   33.697655   37.982643   88.717827
H   39.327805   18.321209   25.518375
H   56.080914   20.611061   30.799164
H   33.648457   86.641655   27.997780
H   92.442924   26.335728    7.632840
H   31.711620   21.908003   58.818977
H   16.415815   60.305725   27.428553
H   71.141075   31.434277   12.586448
H    5.881006   33.406433   95.144951
H   29.165928   82.019341   74.930664
H   67.017197   27.765980   98.727074
H    9.941551   89.963425   10.994169
H   94.499985   60.786926   29.342781
H   89.341331   54.443260   49.381248
H   21.905092    6.150004    8.604158
H    4.650221   73.429527   34.581188
H   66.059525   60.969151   80.642380
