100
TIME:    2.548, STEP:  2548
H   45.011139   88.356804   96.813248
H   30.393044   42.893593   38.727009
H   23.552618   57.217209   93.427315
H   81.904282   27.673265    0.497791
H   72.348846   76.990952   96.618729
H   88.507576   98.447655   31.082575
H   19.430141   33.390884   89.709770
H   19.618523    9.036936   74.245644
H   90.993233   41.313644   39.699558
H    5.211359   52.968864    7.465256
H   63.246277   68.766861   94.313385
H   58.592575   51.408676   11.559820
H   81.183647    7.549835   71.877861
H   28.919090   97.222206   51.144810
H   11.493149   42.429352   28.291792
H   99.074127   88.871613   21.535421
H   19.212036   50.500313    5.342644
H   55.594376   70.791359   11.209915
H   84.950981   85.244919   97.602173
H   23.871643   51.703503   89.812355
H   13.074692    2.555210   88.086060
H    6.659592   47.466492    2.292550
H   51.724556   73.899498   59.449203
H   82.304688   67.240967   17.836685
H   38.452141   84.093872   55.361282
H   34.975727   51.685513   50.347221
H   42.362045   36.559612   50.528675
H   17.549341   75.371742   50.996319
H   66.574539   80.266609   36.726219
H   98.695717   27.777267   85.947563
H   16.334600   50.538998    7.789486
H   26.639320   82.112999   63.382942
H   49.835835   82.058723   27.340918
H   85.759911   40.213699   64.407791
H   17.435059   66.310852   79.883537
H   94.092728   84.643486   11.880952
H   24.185696   11.222300    9.237710
H   58.675842   12.318417    2.247665
H   37.521332   25.899385   97.392471
H   23.200651   73.648598   38.505497
H   61.112041   43.610813    2.374818
H    2.621441   26.213333   22.508295
H   33.188251   78.779541   85.518028
H   16.652170   55.476555   29.864237
H   35.635639   31.359966   74.150124
H   45.214870   11.515980   93.515724
H   61.638615   63.406647   49.916817
H   56.375492   21.617373   26.233696
H   39.509674   21.424358   42.833763
H   79.323936   69.528816    5.455047
H   43.350224   23.650755   80.282547
H   28.960096   27.303452    6.789496
H   61.735352   36.782898   54.886734
H   17.688595   65.637794   44.252106
H   37.914276   81.876678   22.026442
H   96.754349    9.854124    5.886871
H   57.782619   16.025856   98.323341
H   36.327240   36.260757   47.925613
H   91.232613   46.428356   15.871508
H   90.877457   23.635519   91.139412
H   20.430460   60.076397   15.734265
H    8.480190    4.226515   80.066101
H   47.062435   33.399269   58.755539
H   18.005545   55.654984   57.965290
H   33.456066   57.340366   32.851173
H   44.817482   15.604256   96.842995
H   83.137459   36.453831   90.079178
H    4.357916   63.260071   88.011734
H   83.894279   66.703300    0.425341
H   82.006165   76.300850   96.367767
H   41.122627   22.033812   31.584846
H   63.871780   66.961914   43.174561
H   40.857697   92.272697   96.414055
H   74.117729   88.137039   51.773338
H   85.020653   32.269924   94.553207
H   85.894188   70.876701   24.481861
H   98.296478    5.702795   36.112583
H   51.689999   84.113518   55.157757
H   83.698364   46.034451   46.107910
H   74.566597   70.185822    1.408809
H   60.744564   55.641888   32.276173
H   32.503006   60.867935   73.715187
H   79.013321   49.786743   72.584320
H   25.449512   30.197237   30.698151
H   28.263409   89.505157    0.752515
H   92.647278    2.645845   18.724239
H   37.329887   18.092575   45.041840
H   96.972931    1.295533   69.247444
H    8.560448   52.303368    7.353969
H   41.061146    4.442062   15.303203
H   28.297302   11.016892   87.270828
H   66.817276   87.133110   82.073357
H   48.768314    3.981088   16.035324
H   93.501259   67.789116   98.617653
H   12.536999   21.495033   74.637321
H    4.375949   95.114143   35.841583
H   60.354019   13.904851   90.651543
H   16.220404   37.932373   15.266117
H   87.332726   47.833721   31.616310
H   97.480698   13.255812   52.277008
