100
TIME:    1.133, STEP:  1133
H   40.701820   18.119331   98.108719
H   69.753777   66.176186   49.469509
H   99.230957   55.416439   10.036591
H   81.666779   85.969872   78.060417
H   85.022873   63.572472   34.984200
H   10.447193   99.980629   90.950279
H   93.590294   37.843502   79.054848
H   30.834732   86.620926    4.165064
H   25.776695   77.360016   28.768377
H   43.877434   32.651558   52.058640
H   94.866135   11.831103   30.613501
H   12.595692   80.482231   12.281034
H   71.191177   93.159157   12.518247
H   98.982491    1.584000   43.462399
H   94.281853   68.820312   96.309402
H   55.968948   12.635723   38.991684
H   32.975014   56.924088   76.512383
H   25.355919   39.602982   60.267380
H   62.906914   25.883814   23.053736
H   61.990883   81.754013   93.472588
H   97.042816   43.424049   26.493038
H   70.987236   45.595367   22.782139
H   70.616844   85.407600   99.932678
H   13.773590   50.270298   22.927757
H   89.061882   96.318703   44.921944
H   41.463879   93.849945   82.976593
H   64.380020   95.379044   22.449339
H   36.941803    9.324033    4.223180
H   35.807098   51.886448    3.615485
H   44.437069   62.798172   73.458946
H   60.670750   23.645899   19.756046
H   37.295383   21.209610   94.376610
H   50.165325   85.586891   99.866539
H   25.973915   69.890053   24.019468
H   52.609337   73.273994   93.721115
H   71.064758   73.487320   16.745840
H   88.468437   63.043312   97.741402
H   17.162941   38.217045    2.395006
H   99.783890   56.321785   33.534286
H   56.476799    6.115145   27.175814
H   57.812187   95.058586   69.037521
H   29.793602   62.709488   56.030338
H   21.000029   70.294205   83.310738
H    7.010054   31.758692   91.512825
H   58.375290   87.188461   53.063309
H   63.470219   84.527016   87.772469
H   48.043507   86.859589   37.304634
H   56.299923    7.048719   38.681530
H   98.151054   38.613899   99.277176
H   49.652424   47.994381    4.422238
H   43.458179   60.259773   65.363037
H   60.194435   58.605862   99.681412
H   32.382133   28.578247   37.066780
H   50.453220   88.718773   81.813126
H   50.562492   57.830517   10.020397
H   94.983871   11.341217   54.056808
H   68.077713   56.854790   63.745171
H   41.692810   69.889778   84.371536
H   79.633934   86.640152   24.501972
H   84.252304   14.873495   31.384361
H   31.171682   25.882095   26.058342
H   58.698761   17.399551   44.090897
H   51.084244   29.891842   55.829933
H   20.839937   47.957726   96.377708
H   77.293892   70.354149    1.074895
H   31.743202   85.948341   13.177244
H   96.665421   87.533386   21.763851
H    2.101598   82.334274   20.366552
H   13.369814   68.376175   89.172401
H   53.337082    5.129054   99.347351
H   86.053886   18.311693   48.558872
H   80.545731   13.923548   39.574593
H   33.118622   62.261723   32.696911
H    5.253655   77.681839   35.871040
H   16.798771   30.255823   87.286674
H   52.445713   80.187889   19.693459
H   69.824821   28.345900   11.082090
H   85.210724   76.637444   77.012085
H   15.859522   50.183445   30.321812
H   43.961136   47.249168   23.312103
H   33.053867   41.003063   47.705059
H   26.332706   51.626907   92.036331
H   89.485359   26.167318   37.812443
H   28.109983    9.113870   59.943001
H   97.161179   78.014786   37.920738
H   25.214817   50.672794   20.462395
H   42.825233   20.974602   77.568863
H   74.194229   14.583797   83.964531
H   79.195259   31.087992   18.930302
H   66.165329   62.662697   64.717339
H   70.389565   34.610722   57.388622
H   62.117481   80.718697   55.109528
H   57.979256   61.577324    6.566591
H   56.737320   81.958015    3.211521
H   37.004108   48.242950   42.120995
H   87.502716   50.989799    8.928045
H   72.670212   32.700832   72.029160
H   11.025140   25.884491   37.908379
H   54.738487   41.734211   50.144489
H    9.604568   49.601994   88.561592
