100
TIME:    0.745, STEP:   745
H   66.941078   53.700996   98.463943
H   80.546684   45.138317   24.994535
H   92.564575   27.501945   14.592346
H   81.601654    1.955156   99.326530
H   88.498154   32.472557   45.504768
H   16.463810    0.402814   52.525936
H   13.925522   11.642853   48.712742
H   61.330765   53.053165   39.790886
H   35.314476   14.664799   53.192833
H   54.480888   27.081760   36.863907
H   30.956940   96.219391   67.986458
H   27.405598   61.033684   39.898689
H   95.873367   16.634064   51.081520
H   18.193607    2.780261   13.934353
H   89.563286    3.478190   14.960451
H   71.569229   46.574474   71.198715
H   64.169655   31.265030   41.185295
H   17.064384   58.471329   73.718552
H   56.865135    9.605647    2.613435
H   72.482918   89.912140   67.013435
H   20.067184   82.050385   37.023262
H   33.783375   45.083252   55.820988
H   75.797203   88.563179   11.034187
H   49.822968   45.616856   51.745354
H    2.939116   27.090405   42.059425
H   43.242962    5.411575   19.344622
H   97.836258   11.507682   14.749846
H   69.679222   91.213272   91.399155
H   27.370514   16.684332   21.955524
H   29.559320   72.401077   42.613613
H   45.407932   88.850731   50.458702
H   12.796825   31.928513   30.295677
H   22.834248   13.974627   64.912437
H    9.580010    5.447944   40.364998
H   62.253685    2.603772   70.092758
H   37.330261   43.009045   18.080893
H   51.253750   77.252296   67.168404
H   33.198372   45.318577   75.013329
H   17.227432   64.604439   70.722809
H   93.022881   42.438969   96.648857
H   84.329010   81.743584   59.895077
H   64.664818   45.294601   37.801395
H   17.657957   67.967484   55.284439
H   31.785505   25.256601   53.574837
H   92.032326    2.498300   19.859228
H   68.436592   77.209282   86.239815
H   43.946583   65.930939   33.989204
H   56.279202    3.053878   14.674270
H   86.807549   70.747543   14.755198
H   41.514820   42.088772   31.558487
H   43.487782   97.718208   61.272038
H   41.337929   94.608322   25.153854
H   24.333338   26.328491   59.602821
H   59.437443   95.047691   64.691299
H   81.450562   23.815157    6.727909
H   94.498398   11.748985   67.265244
H   43.480881   68.050285   26.843254
H   70.584412    6.531151   94.365189
H   49.032784   70.246536   54.290142
H    9.857129   85.050919   42.420006
H    6.695507   43.924545   56.308678
H   72.469635   21.011002   61.647873
H   24.765469   56.350273   82.448097
H   94.196846   45.847099    6.912062
H   61.894501    1.341659   64.942589
H   55.578773    5.236950   90.236076
H   27.796240   74.117737    3.030281
H   28.903679   60.144577    1.817909
H   94.032097   96.255386   13.506550
H   45.477737   85.614891    0.164142
H   98.374260   44.712994   53.212315
H   12.538755   26.800560   11.166590
H   58.416534   81.455421   42.646160
H   13.793107    2.233953   58.931038
H   98.092087   29.703745   57.874073
H   43.272038   55.321136   45.800205
H   34.595913   61.973991    4.216635
H   66.981781    2.006534   55.584957
H   97.261147   51.320164   25.995472
H   62.989334   68.381462   56.738739
H   25.460941   36.989025   24.515289
H   97.220695   49.092972   24.481659
H   64.933418   19.691870    0.857530
H    1.418129   75.912209   95.382576
H   16.053957    2.282777   75.533104
H   34.145756   36.419407   93.518196
H   16.911596   49.185356   59.067577
H   67.948196   45.647392   87.996330
H   71.143501   52.691505   22.105122
H    0.468204   78.629791   50.845821
H   54.511021   13.660055   49.194775
H   33.409412   51.536995   47.717896
H   33.083931   49.952599   76.549950
H   19.234484   58.423683   77.049446
H   43.711933   82.997101   33.204857
H   55.455536   66.311821   28.968895
H    3.468103   10.434356   94.343185
H    9.600541   22.580902   44.115929
H   73.222008   40.061695   82.646278
H   85.508469   59.569004   25.931993
