100
TIME:    0.560, STEP:   560
H   79.452065   70.666481   98.633316
H   85.692787   35.107227   13.324847
H   89.386017   14.192742   16.764549
H   81.570602    9.577627    9.467185
H   90.155182   17.643990   50.521019
H   19.332558    0.604159   34.204060
H   23.621319   99.150536   34.245502
H   75.871399   37.048870   56.777542
H   39.862129   32.451767   64.838509
H   59.536659   24.426140   29.618998
H   48.165192   88.775467   85.807274
H   34.467022   51.760536   53.067406
H    7.641355   27.826767   69.468742
H   27.353840    3.350658   99.855293
H   87.313454   20.002378   23.853258
H   79.007507   62.756611   86.555161
H   79.043388   19.030685   24.341516
H   13.111205   67.467834   80.132126
H   53.984390    1.844289   92.866394
H   77.490700   93.790771   54.392357
H   31.045349    0.466860   42.043747
H   16.044422   44.839073   71.573372
H   78.267220   90.067772   16.327454
H   67.011459   43.398075   65.485550
H    9.555323   41.762302   40.693924
H   44.091236   10.923676   36.684654
H   13.788958   19.198109   11.078695
H   85.289726   82.578094   85.284805
H   23.347916   99.899895   30.700089
H   22.466139   76.979782   27.906624
H   38.130558   72.260689   65.098137
H    1.116185   37.039330   47.422066
H    9.802979   27.509611   48.246178
H    1.763115   22.401917   48.158958
H   66.852150   16.588638   58.827309
H   21.245041   28.476709   18.717451
H   33.510563   84.027199   52.591076
H   40.844131   48.704617   61.957745
H   25.544331   68.553642   88.453293
H   10.448051   59.758724   82.094109
H   96.972672   75.394936   55.535145
H   81.291557   36.991112   29.109762
H   16.064444   66.858093   41.922356
H   43.599228   22.156378   35.485847
H    8.079994    9.797217    4.027834
H   70.799339   73.731499   85.514336
H   41.993153   55.950932   32.408394
H   56.269321    1.149074    3.227575
H   81.398918   86.070114   22.134962
H   37.634777   39.272953   44.497139
H   43.501896   15.579145   59.321430
H   32.347069   11.774796   37.299278
H   20.495638   25.255798   70.347267
H   63.721157   98.065346   56.527546
H   96.177505    7.597024    5.158037
H   94.266922   11.943411   73.563080
H   31.753242   73.388344    9.248133
H   84.360046   24.001915   99.130203
H   34.442749   62.429993   68.492996
H   22.064835   70.832092   47.681847
H   95.025528   52.527260   70.732819
H   79.035645   22.732956   70.018097
H   12.216972   68.965706   95.139748
H   81.493904   44.840744   11.935369
H   54.550789   16.117569   47.713242
H   66.943672   14.433826   79.297432
H   42.639122   67.721100   94.098495
H   41.682838   49.564438   92.973839
H   84.812584    9.548286   25.109905
H   41.730370   76.310692    0.553169
H    4.249066   57.301609   55.431095
H   27.792791   32.940315   97.621773
H   70.478683   90.607185   47.390003
H   17.864914   13.941391   69.926140
H   89.171799   29.440512   43.850025
H   38.897991   43.463646   58.247677
H   17.798985   78.007927    0.943225
H   58.290146   14.103336   45.367558
H   88.394493   51.862156   23.932655
H   72.062057   78.456306   72.676697
H   21.840603   35.075115   13.458708
H   83.340614   47.884781   39.952087
H   53.228252   16.604349   83.237152
H   88.692474   60.081516   12.280312
H   25.062460   13.854817   93.466835
H   38.404064   29.623581   80.671288
H    4.555868   62.636360   50.246090
H   64.970062   60.459023   89.918709
H   67.304390   62.992180   23.618889
H   16.824638   86.243088   44.231823
H   46.940067    3.670679   45.287914
H   19.721285   37.623039   44.193535
H   21.214378   44.409882   62.237968
H    1.353213   47.201340   64.575157
H   46.910252   99.567383   28.954113
H   40.175308   73.617424   38.524330
H   18.152300   99.817833    4.982724
H    8.921287   21.005737   47.075714
H   82.035027   39.264233   98.143867
H   74.019363   64.321220   43.750229
