100
TIME:    6.212, STEP:  6212
H   97.230545   52.350090   93.458755
H   28.914253   41.483593   69.793129
H   86.543213   20.819965   50.425083
H   82.519272   76.715607   99.661133
H   39.530731   70.676620   97.273285
H   31.688946   94.478172   93.941307
H   27.399746   80.801918   76.239571
H   31.635345   26.019039   37.828838
H    0.925068   89.034836    9.063085
H    5.088198    5.578887   50.942661
H   22.429916   16.195578   41.378159
H   18.745430   35.065922   50.751854
H   47.666245   85.938164    7.766045
H   47.499458   85.928749   29.976055
H   56.056953   15.146362   52.166714
H   51.753113   68.404762   17.390656
H   24.575142   92.846809   38.891212
H   33.907764   92.563293   84.185097
H   42.020046   38.954933   90.634888
H   25.155525   73.892128   39.274437
H   95.647842   37.793339   88.638878
H   57.930832   52.330505   90.269119
H    2.803321   44.100426   54.618118
H   41.873692   11.141817   45.716579
H    7.408080   93.516586   82.416908
H   18.228521   43.017715    6.269160
H   26.410831   84.251907   23.222288
H    8.391686   46.394859   72.110336
H   46.245049   12.693413   63.527496
H   39.188160   37.092949   77.224930
H   60.538704   79.097252   17.905266
H   57.986698   80.880096   24.188072
H    7.921530   13.982973   57.422974
H   40.574074    4.430037   10.049986
H   26.356750   89.334511    2.993007
H   12.636330   71.979164   99.895638
H   75.610115   77.038208   97.946754
H    7.240250   45.271923   60.803883
H   82.862061   46.067009   42.323067
H   78.092010   30.636398   26.781294
H   10.705704   69.329781   88.697731
H   76.700409   65.963501   97.093803
H   64.747772    0.751737   50.172806
H   82.686295   16.911032   88.112267
H   17.811123   86.798325   87.687607
H   97.939964   81.401230    8.398138
H   90.265915   62.667740   85.094261
H   56.571171   59.351562   52.941273
H   46.611481   17.972443   96.673965
H   56.163738   25.282362   49.189323
H   43.075047   69.914948   18.911171
H    7.024424   87.312378   66.256996
H   37.728107   58.028015   42.085766
H   32.836037    5.845922    5.935374
H   46.186546    2.994411   53.185398
H    1.332798    5.999302   81.155655
H   90.066002   10.302075   46.800392
H   63.497223   90.240517   53.548935
H   80.203766    1.240851   34.587120
H   49.090088    5.262239   86.926537
H   51.558582   89.685196   30.059589
H   78.441902   70.121658   14.279714
H   95.792809   83.387123    7.494965
H   69.607651   75.602509   58.486759
H   78.888580   64.703232   74.065422
H   19.733543   33.456047   13.485681
H   89.167770   63.124676   66.977554
H   51.260475   72.808083   63.172123
H   66.509071    3.431622   70.627930
H   56.237015   60.589256   88.652435
H   24.773903   72.736526   87.631477
H   61.758282   45.360870   11.434962
H    1.956689   11.036346    2.469992
H   93.460320   56.260662   34.056969
H   61.674801   37.497341   72.309708
H   72.515602    5.703232   77.940063
H   30.965378   88.136131    0.912248
H   23.831387   44.533211   57.506645
H   59.399250   35.272121   86.989037
H   94.883163   70.622536   85.751884
H   32.431602   93.547653   51.265476
H    7.440719   84.756470   67.307243
H   10.797013   11.005122   21.542633
H   77.524681   43.733665   96.047417
H   49.856621   60.322281   45.568604
H    8.319248   37.231010   73.163300
H   82.040154   51.689781   19.755621
H   55.935051    7.982801   31.169022
H   84.599228   48.297691   77.384651
H   17.114180   53.698940   46.280365
H   78.243279    8.862396   64.647873
H   37.923992   62.681046   51.887627
H   83.654724   13.909375   99.388077
H   47.632771   90.048042   45.664581
H   49.190651   93.296005   58.831089
H    7.007357   50.426178   46.591141
H   69.523033   24.173922   79.931396
H   26.286730   93.828842   54.174171
H   12.787604   63.627789   24.716888
H   25.062632   19.225292   99.318199
