100
TIME:    6.923, STEP:  6923
H   49.147781   87.148689   92.807816
H    9.280277   80.011559   14.622165
H   98.770035   71.972404   42.076778
H   82.638611   47.423309   60.691067
H   33.162369   27.666319   77.994614
H   20.660938   93.707893   64.355026
H   90.135864   28.811649   31.840769
H   75.752144   87.529510   72.547600
H   83.447319   20.675293   64.310143
H   85.667793   15.788990   78.781197
H   56.294434   44.804386   72.890450
H   91.608368   70.704880    0.142898
H    2.295731   42.940922   37.117363
H   12.295832   83.737251   84.083427
H   64.692757   51.636345   17.976093
H   23.165161    6.218086   58.371582
H   67.400612   39.873066    3.616354
H   49.112637   57.965836   59.537155
H   53.091450   68.783386   28.092525
H    6.001617   58.792194   87.682671
H   53.456085   67.011627   69.338509
H   26.095093   53.274368   29.720856
H   93.310173   38.317909   34.276245
H   75.811989   19.647432   92.911133
H   81.978462   37.131752   87.667824
H   14.964733   22.010548   39.397797
H   65.101952   54.697525   37.331409
H   48.398705   79.581947   95.609268
H   61.704872   77.200813   29.917467
H   66.451691   19.495872   33.746758
H   88.518944   42.854263   61.653282
H    2.879802   61.233326   58.367271
H   58.004848   61.962654   21.475470
H   70.614952   39.271011   80.096664
H    8.661470   35.501778   46.253052
H   74.442299   27.668110   97.660744
H   43.804634   51.000610   53.970615
H   77.851280   32.258549   10.979079
H   52.851711   30.574888   73.422272
H   11.124577   64.076218   82.722092
H   62.113525   93.729179    5.448209
H   16.781387   68.751694   33.391834
H   70.866608    5.016958    1.530390
H   37.286427   28.844931   57.629150
H   56.136047   58.743832   48.530216
H   88.761711   94.962479   11.286684
H   95.820602    1.333647   91.918282
H   56.610165   66.674637   96.933960
H   67.393623   59.086124   68.314682
H   71.089111   36.105923   99.475258
H   43.026226    1.272169   26.405117
H   41.585194   21.335968   19.584602
H   52.477322   62.150635    0.791080
H   16.372681   94.246277   37.308426
H   89.575027   65.304543   59.233715
H    2.218347    5.251399   56.951538
H   35.139843   89.786003   14.422476
H   10.555068   23.095701   35.235825
H   36.279114   31.286488   80.005486
H    2.173191   59.914036   66.704002
H   96.408348   56.618660   74.623764
H   53.207130   63.503769   82.110489
H   44.063244   34.870399   58.739563
H   18.429279   79.475601   39.180965
H    7.107678    7.915362   40.278172
H   76.056671   98.110619   55.525635
H   32.123734   87.708313    1.303877
H    2.146673   13.470927   97.162033
H    1.942145   52.343704   26.033924
H   70.641563   96.348076   87.155273
H    2.195106   24.360840   79.104164
H    3.157330   21.751518   63.502983
H   55.598816   75.868576   84.242981
H   77.805214   11.263187   91.812897
H   95.957268   38.511723   26.208755
H   89.320702   51.272923   30.099714
H   95.538666   26.597309   13.521864
H   57.235455   98.041832   96.770073
H   93.496925   33.183689   94.919655
H   60.014481   31.891602   24.498436
H   46.345444    0.903482   93.761002
H   60.792084   89.367432    7.826586
H   55.771538   22.895056   89.254639
H   26.441345    4.574959   31.108059
H   15.236753   15.846805   76.645210
H   91.956528   63.349976   22.537506
H   29.526308   99.993965   53.658745
H   67.369896   51.089039   23.797127
H   99.353867    8.711040   71.569588
H   54.253170   24.444614   71.695786
H    7.340427   47.253212   79.662888
H   90.530792   16.155254   65.433174
H   29.231007   35.243931   54.370796
H   16.348152   33.183189   93.606308
H   36.898735   29.609451   75.169678
H   65.733002   22.349901    9.867052
H   13.087379   64.976486   39.041519
H   24.914331   29.009785   39.902313
H   78.917381   66.697395   65.164497
H   69.224129    0.980240   30.825840
