100
TIME:    4.221, STEP:  4221
H   31.872719   34.934052   95.281570
H   83.902077   33.593636   44.253654
H   52.309860   77.579842   73.796318
H   82.185089   58.745232    8.795009
H   57.363937   11.089267   51.255554
H   62.570469   96.635170   96.765495
H   31.748154   46.360432   20.540705
H   88.124016   53.771290   20.635349
H   49.867699   80.461395   34.389805
H   59.491524   76.990669   72.980988
H    7.627884   36.083469   33.161678
H   94.735481   35.267403   92.474083
H   74.716415    6.337513    5.602348
H   46.081490   92.065559   78.460388
H   31.845310   92.990936   47.873425
H   31.807949   42.545036   82.661072
H   84.679359   61.155697   57.642632
H   91.336510   89.433296   53.206791
H   11.011860   55.431168   85.741043
H   78.796043   16.178511    3.717934
H   13.796585   36.003651   42.677826
H   67.051727   49.687424   59.821136
H   29.387596   60.293098   11.581861
H   26.864891   87.305939   93.584381
H   78.617218   51.413857   67.712868
H   27.304621    1.870117   93.495018
H   98.096962   67.017105   83.720192
H   76.385620   53.461716    6.293957
H    2.952071   32.053768   57.643074
H   62.845032   86.369713   18.945915
H   82.178673    0.561330   75.426857
H   32.273602   35.889641    8.504906
H   67.680031   59.653755   78.057968
H   56.448990   86.893341   93.927864
H   75.848328   39.844963   81.757599
H   39.561649   16.036076    6.158112
H   84.647659   49.954086   41.063526
H   89.530724   81.705650   20.306202
H   66.904816   89.450005   35.265633
H   65.621468   17.027145   70.134766
H   46.775970    1.018446   41.790630
H   52.261703    1.297657    1.108036
H   47.598782   88.812027    6.361604
H    9.819883   83.510132   93.441895
H   90.515175   65.350006   17.313086
H   23.630985   43.425922    0.306634
H   74.711227   54.390404   65.985085
H   56.464840   38.844894   29.749458
H   88.414841   82.866364   76.097839
H   14.404574   94.980186   88.442360
H   43.222584   62.133232   97.922363
H   10.265585   72.062729   96.960175
H   96.428673   46.483521   57.721378
H   78.942986   38.336411   18.077400
H    4.712069   28.506510   36.248409
H   98.847641    8.093725   48.934006
H   63.843311   67.751503   57.439690
H   11.751323   78.266151    4.831230
H   23.178213   17.116257   87.434807
H   80.475998   52.229008   43.555305
H   25.964815   82.275658   85.293465
H   49.103081   88.653610    4.366076
H   60.625286   19.249584   44.023827
H   32.887634   64.756760   12.538296
H   99.860146   23.719364   88.652138
H   42.042336   32.434303   95.762268
H   48.910019   94.294098   70.852036
H   88.792305   58.940872   67.990807
H   67.277878   46.492188   95.498077
H   15.904203   60.448189   92.844910
H   87.996071    8.202734   11.513493
H   25.926689   11.438352   65.664879
H   31.774950    9.519474   53.523972
H   37.289959   82.266701   52.356316
H   65.680916   34.656788   21.378580
H   25.444155   78.099937   11.910219
H   50.194839   60.699215   65.699486
H   30.290585   74.720543   47.550758
H   63.923073   41.120319   64.781075
H   92.519287   79.069801   57.278282
H   93.472672   72.949844   32.267605
H   58.032677   71.793900   33.820557
H   84.859474   77.714325   31.929424
H   40.548058   73.359077   77.893417
H   46.802002   84.858727   38.573730
H   54.147854   64.101341   34.902374
H   49.065773   96.451828   24.817213
H   23.899260   67.350792   51.846298
H   43.282089   59.153542   93.668465
H   93.145218   35.612610   75.106552
H   96.763275    1.354209   22.601603
H   90.607681   12.941980   13.955992
H   56.027763   54.169121   45.420940
H   55.204212   69.268860   11.419386
H   83.611473   71.638817   13.081330
H   42.558899   29.048084   49.428871
H   27.558990    9.915086   94.435089
H   22.359877   52.176971   88.492729
H    7.634460   55.045368   91.483467
H    1.394591   70.313454   91.117645
