100
TIME:    3.952, STEP:  3952
H   50.064362   59.602783   95.527847
H   91.337456   19.015162   27.290632
H   47.686012   58.226585   76.952766
H   82.139938   69.827690   23.540060
H   59.773346   89.527733   58.549454
H   66.741463   96.926598   70.126549
H   45.845470   28.195461   99.504478
H    9.266891   30.500179   45.334866
H   56.480232    6.324682   51.323391
H   66.842888   73.128227   62.448242
H   32.649612   25.259602   59.072056
H    5.002090   21.783747   11.621569
H   91.875870   22.606079   32.332596
H   59.400963   92.894691   57.990078
H   28.572906   17.018875   60.805012
H   42.623627   66.072685    4.990347
H    6.310772   43.364246   33.154503
H   85.590050    2.514753   62.534527
H    6.822147   44.145531   71.567810
H   86.044792   21.891108   85.403191
H   29.759430   62.784206   49.977882
H   41.262436   49.330322   82.728989
H   32.979134   62.480858   19.278744
H   51.857887   84.079712   13.562666
H   88.238434   72.746750   65.726234
H   28.535131    9.853999   18.749857
H   21.293097   78.198074   78.384193
H   99.084137   40.905701   97.402275
H   97.102798    7.648578   70.359169
H   52.530136   93.027397   97.561707
H   71.592873   76.438545   96.709282
H   15.288732   43.321045   33.407600
H   48.731480   79.335381   53.824326
H   45.083313   11.545481    5.260310
H   82.534744   60.179222   65.376083
H   16.173922   94.935577    7.045336
H   58.846466   59.805161   19.867300
H    0.650026   86.627083    1.324107
H   78.258179   95.311394   61.334038
H   90.959251   42.210396   48.969913
H   65.160538   91.787369   35.453106
H   76.437881   89.225800   88.469986
H   45.281727   87.198914   86.930779
H   26.996668   79.003265   67.139526
H   13.849295   75.964539   94.293640
H   27.101437   38.295155   99.214333
H   72.609665   39.761559   63.402809
H   56.450474   36.074280   13.105247
H   80.550400    5.145765   86.827301
H    8.762782   90.887886    7.257188
H   43.243107   88.103127   95.086075
H   97.193192   97.022888   14.619831
H   90.850502   44.923767   73.344368
H   85.173790   42.726295    6.207880
H   26.129715    4.931657   33.960087
H   98.511063    8.376944   58.091400
H   46.790691   75.513329   31.855627
H   31.781731    3.669716   11.760332
H    1.963514    5.749967    8.085529
H   98.228455   31.552015   51.206306
H    8.995525   94.786522    6.267572
H   58.650414   91.157425   16.537895
H   42.361805   37.606133   62.469963
H   14.415796   63.292404   19.842457
H   89.184044   45.204571   63.601673
H   58.567513   45.807137   79.856888
H   70.492081   84.993042   57.865032
H    7.374098   43.556778   55.131054
H   53.870659   65.820816   12.369202
H   10.454302   46.917328   93.411346
H   96.537773   26.506016   14.740746
H   48.106255   20.366150   45.969059
H   49.313980   22.824581   60.421776
H   43.212917   99.288536   68.339684
H   52.712124   34.273006    0.985917
H   19.084055   60.860184   30.010426
H   25.770594   84.013718   60.942234
H   17.652477   92.308815   32.694107
H   51.024323   41.910458   61.779083
H    5.711627   93.719170   80.452934
H   88.210556   70.166916   16.190840
H   37.848236   70.037125   56.313843
H   67.841743   73.223877    6.308439
H   22.041853   50.340401    2.463466
H   59.899826    1.683704   64.650345
H   60.339664   54.219505   16.222275
H   31.099874   16.010338   11.990133
H   19.569918   88.887703   54.643593
H   37.699814   74.131279   95.868538
H   16.928411   46.680702   65.489441
H   85.754700   86.828087   16.920816
H   70.704407   92.713432    8.829906
H   38.784279   46.097397   24.618753
H   29.203533   52.951630   93.281853
H   88.262001   95.732903    6.900294
H   20.340622   39.670540   63.322990
H   48.910980   94.477959    9.905710
H   21.372717   49.886597   92.798470
H   20.449059   53.885815   14.014969
H   84.684853   77.217415   17.031065
