100
TIME:    0.664, STEP:   664
H   72.418861   61.129128   98.538101
H   82.799843   40.746326   19.885069
H   91.172882   21.674694   15.543419
H   81.588058    5.292562    3.766466
H   89.223663   25.980049   47.701073
H   17.719856    0.490968   44.503925
H   18.170666    6.173232   42.378437
H   67.697205   46.045879   47.228287
H   37.305611   22.452621   58.291794
H   56.694496   25.919029   33.691811
H   38.491364   92.960159   75.789085
H   30.497356   56.973549   45.664452
H    1.026009   21.534653   59.131958
H   22.204304    3.030003    7.769993
H   88.578224   10.713094   18.854082
H   74.825989   53.659626   77.922348
H   70.681938   25.908371   33.810310
H   15.333480   62.410339   76.526657
H   55.603836    6.207411   98.346008
H   74.675514   91.610352   61.487450
H   24.873840   90.113800   39.221420
H   26.016590   44.976341   62.718273
H   76.878670   89.221947   13.351770
H   57.348740   44.645390   57.761398
H    5.835994   33.514317   41.461838
H   43.614368    7.825023   26.936827
H    4.820910   14.874906   13.142477
H   76.514091   87.432465   88.722061
H   25.609268    9.335471   25.784225
H   26.453657   74.405807   36.174252
H   42.221622   81.586983   56.868401
H    7.682565   34.166222   37.794258
H   17.128738   19.900755   57.615318
H    6.157478   12.870976   43.777489
H   64.267067    8.726882   65.160034
H   30.287674   36.646313   18.359602
H   43.485111   80.218605   60.785900
H   36.545975   46.801113   69.297005
H   20.868885   66.333549   78.485886
H    0.652444   50.022213   90.276237
H   89.864883   78.963905   57.986134
H   71.944633   41.659019   33.995869
H   16.960257   67.481750   49.434013
H   36.957993   23.899206   45.654793
H   99.058769    5.694053   12.927645
H   69.471092   75.686577   85.922173
H   43.091297   61.561466   33.297066
H   56.274876    2.219874    9.662444
H   84.439445   77.456345   17.986372
H   39.815990   40.855900   37.223518
H   43.493961    5.538343   60.417988
H   37.401390    2.124314   30.471581
H   22.653048   25.858826   64.307472
H   61.313015   96.368935   61.116901
H   87.898575   16.714247    6.040560
H   94.397049   11.834112   70.022675
H   38.346077   70.387489   19.139503
H   76.615906   14.180504   96.451492
H   42.644714   66.824158   60.508884
H   15.202201   78.825378   44.723839
H    1.585884   47.691139   62.623825
H   75.344482   21.764938   65.312897
H   19.271309   61.873787   88.004982
H   88.635017   45.406479    9.111456
H   58.679146    7.811070   57.398972
H   60.554756    9.263660   85.446724
H   34.295128   71.317047   99.119492
H   34.498878   55.512192   97.945641
H   89.995445    2.075521   18.586895
H   43.836998   81.541161    0.334472
H    0.946392   50.224766   54.183781
H   19.217505   29.488777    5.236100
H   63.697800   85.462410   44.723194
H   15.575828    7.359873   63.745110
H   94.186447   29.588491   51.733814
H   41.356915   50.129478   51.250179
H   27.241520   68.994255    2.783415
H   63.176254    7.303002   51.111393
H   93.378990   51.557468   25.092293
H   66.961716   72.792610   63.716980
H   23.875820   36.151043   19.674335
H   91.143471   48.563980   31.255039
H   59.808392   18.340036   93.142670
H   95.846283   68.980934    2.781044
H   19.998220    7.349462   83.385170
H   36.010204   33.443829   87.893333
H   11.501791   55.074715   55.205196
H   66.644257   52.132484   88.838020
H   69.462593   57.201530   22.767906
H    7.629662   81.963181   47.949963
H   51.196171    9.286295   47.484203
H   27.416231   45.444939   46.174797
H   27.886955   47.525787   70.283623
H   11.405375   53.510117   71.587730
H   45.112278   90.252197   31.343609
H   48.765274   69.510490   33.152626
H    9.897423    5.786057   99.001526
H    9.303138   21.891235   45.411835
H   77.080681   39.712536   89.431709
H   80.478104   61.649746   33.733627
