100
TIME:    8.318, STEP:  8318
H   54.809563   59.220848   91.530655
H   70.753677   55.605587    2.581059
H   22.749712   72.334274   25.699242
H   82.872757   89.948112   84.225044
H   20.662653   39.481632   40.169373
H   99.026123   92.196587    2.505058
H   17.024166   23.008791   40.931599
H   66.107895    8.215240   44.463058
H   49.155556   86.550812   76.499435
H   47.565834   35.819157   33.404060
H   26.534927    0.935565   38.517708
H   38.366928   40.628826    0.845245
H   13.338551   58.507729   98.487473
H   43.223228   79.437477   90.243156
H   81.636421   27.028061   50.887367
H   67.074463   84.206200   42.574493
H   55.222969   32.141788   30.608709
H   78.939651   90.085228   11.183954
H   74.819122   27.303417    1.587707
H   68.412216   29.172201   82.660744
H   70.674812   28.134090   31.479765
H   59.835102   55.126251   10.923706
H   74.684914   26.974825   94.361771
H   46.196045   36.335663   89.306870
H   32.084053   26.501167   97.970253
H    8.387356   80.888840    8.121040
H   44.808739   96.706741   65.013474
H   30.693316   44.695820   41.721626
H   92.037437    3.766309   63.975670
H   19.942200   84.968735   44.645416
H   43.421619   67.945992   51.285393
H   90.960991   22.695004   29.225121
H   56.266514   59.897804   47.148087
H   29.557869   11.427593   21.326956
H   73.943611   29.880669   31.126097
H   95.707565   36.931473   93.275826
H   77.602989   99.910896   63.891201
H   20.194473    6.726946    9.420241
H   93.965630    0.183770   38.236015
H   79.730423   33.479813   92.477417
H   66.775162   41.592354   38.312954
H   99.218048   74.222198    4.609851
H   82.871918   13.385021    2.291975
H   48.210911   52.261673   94.025421
H   35.131073    3.708768   67.904961
H   70.753746   21.566002   16.954084
H    6.723136   77.199043    5.310538
H   56.695309   81.042694   83.248268
H    8.175735   43.552917   12.664921
H    0.378557   57.338718    1.937321
H   42.930439   66.594276   41.111725
H    9.383230   91.890106   28.011944
H   81.409248   70.239319   19.775663
H   84.065918   71.491531   98.867569
H   78.503181   87.554626   71.094299
H    3.955818    3.783995    9.462448
H   23.577362   49.534157   47.098518
H    6.680671   91.354500   99.301414
H   46.298183   90.233360   72.913971
H   10.117444   67.138351   27.026878
H   84.406174   91.746216   65.858131
H    3.695865   50.519302   18.990974
H   38.769596   39.678009   63.080231
H   14.221535   87.074707    1.303313
H   62.480865   96.498749   70.188004
H   90.361153   28.760796   38.009434
H   20.199877   35.937344   68.655136
H    5.784561   93.252129   63.851105
H   71.471313   52.107903   38.542618
H   98.958992   66.434219   84.201263
H   57.897266   29.444069   62.373360
H   88.300293   75.409569   65.750900
H   64.642014    6.869882   48.477734
H   47.095364   22.974007    8.926653
H   63.157501   40.563023   31.977896
H   22.298883   40.678734   36.233627
H   22.234772    5.855683   38.262878
H   22.772753    6.830471   73.815247
H   60.389771   29.086132   10.485144
H   91.603233   55.898735    4.318128
H   73.653847   15.335885   77.138428
H   65.471176   98.413986   91.120277
H   44.006706   46.224522   22.107143
H   22.414867   23.948591    3.697172
H   47.313095   28.579967   41.416130
H   59.855846   14.587058   19.410553
H   22.695269   98.565788   20.177650
H   89.805351   39.459511    9.333282
H   28.307674   31.038786   60.160286
H   30.915586   67.052994   21.565958
H   64.429527   22.579388    9.123069
H   93.746666   21.072453   92.019402
H   18.653172   77.099541   62.248291
H   51.167747   17.816273   87.668785
H   12.777443    4.653104    7.225806
H   80.954269   67.263245   37.813545
H    2.358969   45.031578   58.812950
H   22.221651   98.035149   11.896746
H   12.462598   72.721336   48.318340
H   55.873081   65.177353   96.440292
