200
TIME:    0.224, STEP:   224
H    8.979501   62.528095   15.065987
H   27.821676   32.644585   89.247643
H   18.473049   68.437836   44.560112
H   17.303169   76.786751   44.918091
H   15.380019   83.323730   53.888542
H   90.139099   53.249260   66.023064
H    3.127424   55.315483   49.341671
H    2.530076   88.195465   25.640263
H   86.778694   87.746094   48.109737
H   11.424435   75.123009   96.703560
H   11.635983   94.252388   92.456055
H   30.711639   41.595779   11.979901
H   10.781474   86.476875   61.947441
H    5.159969   53.139431   41.494808
H   20.394361   71.821419   43.017960
H   29.766758   26.625607   54.668159
H   83.454727    6.969150   16.208874
H   36.942123   82.397873   43.805218
H   64.493073   30.281170   42.248299
H   90.005348   79.924400   38.090961
H   57.893059   75.959549   26.573505
H   90.385231   48.202797   71.191269
H   95.484337   62.657791   49.520119
H    8.269342   87.913338   91.636253
H    2.551019   12.060459   45.981274
H   18.674337   61.626255    7.484991
H   98.585945   58.475712   48.438553
H   94.143097   69.469398    0.689172
H   10.394704   57.016060   38.432053
H   93.772446   20.335726   99.179367
H   13.382381   50.780796   16.175251
H   32.217007   63.131332   93.209206
H   27.509895    8.641254   72.983719
H   96.956093   63.560463   38.010635
H   48.756260   90.462143   34.340794
H   33.583900   50.286758   79.293007
H   85.805237   74.774338   85.834816
H   33.706348   44.341434   15.886833
H   53.662415   46.973553   44.075981
H   90.236191   39.754284   64.321381
H   80.499550    5.971216    0.993206
H   12.542925   43.442398   40.305565
H   76.989944   88.149483   49.734165
H   37.316910   62.456917   18.176100
H   28.230345   75.806992   43.786522
H   41.284950   14.254894   42.513866
H   79.672638   26.996056   95.828178
H   90.505348   65.550850   48.222855
H   86.461594   29.359341   61.154797
H   62.689968   17.729300    6.389345
H   78.588852   70.698631   28.502827
H   21.749750   35.422588   63.197586
H   51.745308   94.880119    7.718897
H   22.644722   81.846054   81.466225
H   77.876144   76.740768   91.290810
H    5.510763   72.744225   78.124298
H    5.476146   16.684914   49.826221
H   67.233871   58.207447    5.592220
H   28.518778   74.168381    6.739507
H   43.473347   96.079018   67.290009
H   50.471336   15.688570   42.703972
H   89.649216   16.386980   48.943562
H   71.006516   24.875017   85.424713
H   23.738373   65.129509    3.310273
H   71.091171   75.840546   17.275335
H   39.367325   15.939514   32.575699
H   86.772804   23.499481   85.504555
H   97.431023   91.413551   86.954781
H   15.953365    5.637031   62.182320
H   45.329067   41.351116   50.983448
H   58.472183   76.315399   72.853363
H   32.590137   24.242395   44.876827
H   76.985977   25.386486    0.031522
H    7.344108    9.316377   60.106869
H   78.950211    0.612578   68.365036
H   52.909340   19.641483   62.982025
H   95.495209   29.354555   72.371895
H   27.147861    5.678587   48.514656
H   11.408916   28.980566   35.292828
H   68.517181   90.756180   95.020416
H   42.689022   30.372465    1.371118
H   25.932938   68.877968   88.351860
H   11.062137   13.490794   90.747856
H   25.195826   61.336403   93.330048
H   39.477982   99.154663   58.235626
H   24.216438   86.334137   28.115891
H   35.138115    2.750769    1.734643
H   75.464546   19.139833   10.838704
H   65.198547   72.010872   77.108101
H   23.524269   85.329994   55.041531
H   41.913536   34.754673   80.825653
H   84.166878   88.395081   98.018723
H   46.499622   17.042549   96.185516
H   60.745335   95.008476   68.665337
H   24.719475   57.142632   67.273399
H   69.934669   27.351570   29.813971
H   79.088554   14.832579   97.640137
H    7.334543   28.190083   48.442081
H   37.380455   69.938309   52.824547
H   66.926231   97.667374   27.246500
H    9.152396   79.984009   68.186378
H   89.977333   76.414505   65.952858
H   22.847731   37.754669   30.279240
H   21.107073   67.909943   89.526993
H   25.359949   27.682999   24.568798
H   86.789680   27.556238   44.639854
H   64.900368   29.898111   56.333694
H   64.845436   33.660057   19.360289
H   72.389946   40.291618   98.358910
H    3.852757   28.283472    5.458956
H   46.984032   96.205818    0.784594
H   85.351501   62.942894   90.328911
H   57.371933   80.088989   94.283394
H   63.278374   19.742287   75.366577
H   64.384193   81.302307   27.333664
H   14.691463    6.265390   78.212585
H   33.232777    8.217414   83.993576
H   40.852291   26.208942   34.298332
H   18.254705   57.112904   84.330429
H   70.360390   46.355526   48.745895
H   40.387581   21.653111   88.044121
H   18.979465   27.859058   47.717522
H   31.850653   22.497372   23.554510
H    4.313045   67.894630   18.565857
H   77.395134    9.348245   93.342308
H   47.136166   61.914623   25.840315
H   95.784340   49.115219   71.672684
H   75.778648   87.444481   34.867443
H   92.270821   53.062832   85.254890
H   66.969681   24.225182   66.229027
H   47.963081   85.756989    2.799900
H   82.314140   85.892685    8.949666
H   92.489998   81.816292   97.256134
H    1.705143   12.592724   49.510132
H    3.635670    1.659421   57.152115
H   62.784225    1.647385   83.917320
H   68.866226   86.523750   54.542152
H   91.081871   64.720436   83.451180
H   45.895020   44.109879   71.553871
H   43.439278    9.857310   95.902069
H   49.825542   63.539185   14.393113
H   57.974869   40.524681   45.873905
H   55.519844   56.466496   99.923920
H   58.446236   27.106888   77.859291
H   39.549862   70.297714   48.545353
H   45.353889   61.700035   30.612465
H   44.352837   96.847862   47.396458
H   43.089333   74.014275   68.916771
H   64.757538   65.460251   98.103516
H    8.951941   88.500114   90.595688
H   76.784187   61.038219   51.464985
H   33.113846    7.552413   48.653732
H   75.432465   32.436855    4.026299
H    9.486933    0.775483   76.347908
H   12.978077   53.456493   60.463722
H   63.027122   43.489231   53.568710
H   59.143780   60.403790   80.566330
H   45.818588   36.916611    9.349285
H   13.114088    1.794619    3.198267
H   63.859058   57.596649   77.627060
H   53.798782   85.059410   83.841301
H   44.355328   23.139217   35.682587
H   64.530632   35.267517   37.238705
H   10.687384   19.709629   71.883362
H   59.107384   21.545454    9.667334
H   11.638030   64.948280   62.389286
H   75.175346   97.825752   52.052082
H   23.618237   30.204597   47.351093
H   93.855553   28.222242   36.894714
H   25.742790   10.580457   90.583527
H   79.670654    5.443542   35.977417
H   46.715675   66.041351   57.408981
H   37.363800   78.141739   90.874222
H   71.421104   74.927826   73.873367
H   72.181519   95.156906   99.983742
H    0.413384   47.574425   23.271395
H   35.582111   52.421333   86.238655
H    1.588198    9.185600   64.675613
H   76.010750   21.751513   69.321976
H   87.061638   54.283470   86.159294
H   81.709930   84.616051   42.091309
H   18.904943   30.086514   69.032059
H   66.371719   90.182358    5.753356
H   51.132530   25.190706   76.601662
H   85.316055   89.028351   78.462753
H   98.925468   36.088760   83.874123
H   30.794928    4.798638   98.910660
H   91.189728   66.546822   24.966702
H    7.081726   61.102055   66.360550
H   49.322617   58.360348   65.500870
H   47.055927   31.553703   79.415718
H   47.784081   84.494385   24.828184
H    3.745074   17.143379   57.439697
H   35.383106   62.892471   32.990833
H   85.443680   54.969997   21.868622
H   75.289078   10.344185   29.785580
H    9.354926   85.123131    2.926732
H   29.374487   97.724174   47.417946
H   12.126674   11.567125   78.732643
H    8.174622   35.534794   97.971085
