100
TIME:    6.687, STEP:  6687
H   65.107742    8.790878   93.023880
H   15.797321   67.224144   99.741554
H   94.711624   54.993340   44.847805
H   82.598999   57.146210   73.626587
H   35.276199    8.749876   84.393723
H   24.321430   93.963570   40.982281
H    2.505327   12.875183   13.385263
H   94.301277   67.111420   94.215263
H   89.248650   43.365662   79.164574
H   92.113716   12.399929   69.540840
H   78.246582   35.308353   95.624031
H    0.614781   58.875355   16.941093
H   17.355423   57.213779   60.567558
H   23.980560   84.464668   66.124870
H   61.826302   72.717033   29.324879
H   32.654831   26.859657   77.961426
H   86.378273   24.264210   82.132332
H   44.065731   69.449661   67.717812
H   49.416553   58.883102   15.659816
H   12.359314   63.803089   71.614677
H   67.460663   90.505035   75.744820
H    3.469543   52.961075   49.818451
H   96.461113   40.237282   41.028259
H   97.738930   16.824190   10.438271
H   90.419380   55.848335   85.924904
H   16.063204   28.974861   61.600716
H   85.451622   64.508560   32.648212
H   68.311234   68.566261   87.809341
H   56.573341   55.788830   41.073425
H   57.402195   25.336815   14.985977
H   79.231773   21.692112   80.324852
H   87.978607   67.754105   80.214989
H   41.380489   79.229805    0.214722
H   60.643578   60.899063   90.039230
H   14.535273   53.370308   31.893770
H   53.926983    9.183063   98.402565
H   21.169651   59.643188   35.374668
H   87.606590   36.578037   94.325188
H   62.814083   35.716972   96.292694
H   33.353054   86.168808   64.154953
H   78.242737   85.630363   99.888527
H   36.670120   67.826218   21.343643
H   68.835602    3.601254   84.483025
H   52.355122   24.883749   34.555267
H   76.607460   68.055191   28.335230
H   91.808220   90.461136   10.327898
H   93.976852   88.499344   89.653206
H   56.596539   64.243912   82.331604
H   60.494881   78.632301   77.727890
H   66.134033   32.513851   15.976583
H   43.042431   24.057013   23.917675
H   30.113823   43.235901   35.076424
H   47.581661   60.782227   14.497690
H   21.837311   98.095825   26.894562
H    8.365742   44.621887   57.226116
H    1.924410    5.499648   64.985535
H   20.179178   96.595634   91.976707
H   28.127550   45.383110   41.314438
H   17.666962   21.313313   98.122490
H   17.746437   41.773624   73.416405
H   81.521507   67.593521   93.025253
H   61.583229   65.700424   92.787674
H   28.040487   50.974403   74.922791
H    2.223464   78.190018   45.589077
H   97.740433   26.764286   18.300253
H   90.554596    9.842545   41.571472
H   51.058182   79.548279   89.909988
H   18.449120   99.973305   85.879868
H   90.180794   69.301163   40.836140
H   65.859337   84.478935   87.652222
H    9.689539   40.418030   81.934608
H   22.593683   29.596634   46.213058
H   70.986206   87.540283   90.292786
H   83.001564   26.199543    5.835195
H   84.577873   38.175022    8.317719
H   83.742638   36.146610   45.978760
H   74.105072   47.024403    9.336515
H   46.147747   13.473310   83.737785
H   82.178749   33.876896   92.287270
H   71.588333   44.747444   44.830101
H   41.727066   98.461746   79.655594
H   43.083801   87.836975   27.570374
H   40.843285   18.948278   66.780334
H   10.205003   84.380028   52.662289
H   26.728079   30.609413   99.522835
H   97.386948   54.680389    6.148747
H   13.764406   17.153419   42.405388
H   63.574364   69.974304   26.244057
H   94.456406   21.850710   73.499763
H   75.118637   34.154911   63.258629
H   97.682213   34.510811   74.679001
H   73.069183   98.406067   60.936661
H   14.102950   28.162418   36.120552
H   93.539833   18.865320   77.693161
H   40.978752   50.749557   69.746460
H   46.240387   31.668581   22.056915
H   31.819338   51.432846   52.613968
H   25.369867   17.332401   44.639526
H   90.159935   65.678291   84.930794
H   54.565311    7.036131   53.561222
