100
TIME:    8.211, STEP:  8211
H   62.045647   69.033318   91.628616
H   73.708847   49.807087   95.834610
H   20.910486   64.636139   26.955189
H   82.854797   94.356377   90.089668
H   21.621450   30.905109   43.070663
H    0.685204   92.312508   91.908791
H   22.632050   15.783320   32.564060
H   74.517883   98.958488   54.287773
H   51.785820   96.838394   83.234283
H   50.488350   34.282795   29.214306
H   36.487808   96.630188   48.824066
H   42.451103   35.265438    8.461430
H   20.161644   64.983917    9.120775
H   48.521309   79.767281   82.100929
H   80.336800   36.585831   56.032791
H   71.376602   93.564781   51.456329
H   63.827248   25.064892   20.868078
H   76.652252   95.291878   14.892815
H   73.152145   22.814335   95.950241
H   71.295547   31.444498   75.375679
H   77.024345   38.786579   34.383579
H   49.576908   54.984207   20.035751
H   76.113518   27.844641   97.423065
H   56.138313   35.055634   97.253174
H   35.911079   34.987076   97.180031
H    8.891857   84.043198   18.190411
H   54.035889    1.154334   62.890553
H   39.721336   39.701420   38.184402
H   89.710854   94.058426   69.033745
H   15.839649   87.616959   36.139099
H   39.210094   58.351151   59.750893
H   84.204918   25.650990   39.130653
H   48.729198   67.726555   37.508682
H   25.036541   21.233437   25.834406
H   76.606529   37.982079   24.615744
H   86.406128   28.550226   93.612160
H   67.339897    3.829709   55.459988
H   24.617023    8.685154    1.869782
H   98.481651    2.514860   48.605232
H   89.809021   43.497185   84.059265
H   74.087982   37.921249   35.792080
H    8.235579   73.802597   99.147270
H   81.951080   12.743170   94.562996
H   55.042904   50.464897   83.563141
H   44.412102    7.929991   58.748367
H   72.135002   19.525547   16.519381
H    5.886689   71.380135    4.282964
H   56.688778   79.940628   76.627708
H    5.048221   52.414345   16.933342
H   98.132080   55.710110    9.418838
H   42.937786   76.924309   39.983536
H    4.182832    1.818583   35.036011
H   79.190422   69.618896   25.990091
H   86.544342   73.236877   94.145828
H   87.022560   78.178085   70.184891
H    3.822550    3.896548   13.104980
H   16.794350   52.621574   36.921959
H   14.647996    1.459272    2.057582
H   37.858807   85.712440   81.128036
H   17.178185   58.913982   30.070213
H   77.656631   96.722656   74.201180
H    7.493507   51.515244   23.832310
H   31.504967   46.979401   70.417542
H    6.874004   86.491837    4.208577
H   58.233421    5.044683   60.223694
H   96.934364   34.080101   31.682758
H   28.784971   32.238483   63.489300
H   13.175955   87.132805   58.735886
H   66.138947   59.796242   45.253792
H   96.785881   61.059849   84.428207
H   61.295712   36.724907   63.656654
H   97.111923   78.962303   57.908092
H   71.618500   12.162634   51.221470
H   49.450520   29.745998   15.283941
H   58.003098   40.405468   23.865057
H   19.769030   33.820618   43.432976
H   12.516664   15.117096   36.364876
H   17.746107   13.826550   67.904907
H   55.259041   29.400425    9.291035
H   96.850700   61.727440   13.536135
H   71.559105   14.228921   70.743179
H   57.442268   97.720093    0.072312
H   37.238388   44.435093   11.916707
H   15.053475   14.792082   13.469799
H   52.523010   35.273182   51.788612
H   62.318760   10.656764   11.980069
H   15.548982    6.345662   15.075493
H   88.084496   48.022156   10.442696
H   26.086807   36.996407   61.035408
H   40.376163   71.454727   17.740973
H   60.050648   16.802113    6.863374
H   85.829750   13.025253   89.980171
H   11.794365   73.889671   53.973816
H   40.827103   11.324697   80.453926
H   14.627689   14.237778    4.767178
H   72.116516   71.488647   43.340202
H   10.852020   38.891029   64.966560
H   22.428186   92.740334   14.044958
H   17.559715   72.259285   57.280994
H   49.227215   67.923538    6.747891
