100
TIME:    1.389, STEP:  1389
H   23.389807   94.643021   97.874344
H   62.632683   80.055092   65.617943
H    3.630529   73.834404    7.030652
H   81.709747   75.422997   64.029167
H   82.729904   84.092003   28.042793
H    6.477373   99.703285   16.302771
H   80.172325   55.130611   99.074379
H   10.713638    8.768719   80.660896
H   19.483727   52.746735   12.654017
H   36.881340   36.327339   62.084030
H   71.053635   22.131687    5.954321
H    2.824222   93.314262   94.058952
H   54.907112   77.670876   87.073601
H   86.306709    0.794755   62.944820
H   97.395134   45.954670   84.004715
H   45.675980   90.244011   17.741684
H   12.393827   73.853775   99.820976
H   30.826622   27.153763   51.392380
H   66.894661   36.624046   36.540066
H   55.094398   76.316513   10.902170
H   81.851410   17.937721   19.544796
H   95.534111   45.933258    0.983572
H   67.198875   83.325569   92.608459
H   89.988350   53.340611    3.914344
H   79.905632   76.014015   46.810616
H   40.290051   86.221039   58.980911
H   42.303879   84.738419   27.529417
H   15.342194   21.273525   12.684985
H   41.373505   75.113007   91.514153
H   54.253475   56.462234   93.810509
H   70.741066   46.603287   99.499115
H   53.459446   14.137216   70.677391
H   68.198074   66.856422   22.929045
H   36.790321   46.429115   13.235163
H   46.246056   53.922432    9.309807
H   93.322571   93.596695   15.864905
H   13.022531   53.668312   17.912909
H    6.582428   33.531498   20.459751
H   88.276077   50.856941    8.997317
H   32.365471   82.149925   47.318157
H   40.318047    3.843220   75.068771
H    6.785789   74.197990   68.057678
H   23.205107   71.829361    1.802806
H   90.662712   36.049652   16.543428
H   36.170212   77.086899   74.970535
H   60.167484   89.409828   88.811531
H   50.746632    0.668262   39.492134
H   56.313595    9.684462   54.521374
H    5.634099   17.412727   89.066238
H   55.021564   51.890865   86.516441
H   43.438648   35.544930   68.062256
H   72.635841   34.850002   82.876724
H   37.692680   30.062622   22.198284
H   44.525486   84.542992   93.110001
H   30.181633   80.272461   12.192760
H   95.304184   11.072174   45.341965
H   84.308182   49.468071   88.092827
H   22.629829   45.713997   77.777786
H   99.825340   97.456558    4.848652
H   67.357773   34.551228   24.103111
H   47.320171   13.977715    6.099115
H   49.612823   15.016537   32.506912
H   68.448975   12.433834   38.267433
H   38.419395   49.350304   89.428490
H   87.454048   49.907490   24.915716
H   16.016640   73.221779   28.313871
H   76.126358   96.384949   34.124035
H   84.417946   96.974899   32.604832
H   26.129478   49.981644   73.117714
H   58.522629   18.005388   98.808289
H   77.924980    0.892748   45.488560
H   59.436779    5.426966   58.318733
H   16.426304   49.599613   26.132458
H   99.619408   61.482315   20.656197
H   29.141544   30.620081    6.693181
H   58.498447   96.594139    2.468189
H   93.067009    6.157444   15.611876
H   97.238068   59.898682   91.148804
H   28.131006   49.433445   33.176704
H   31.406448   33.305809    1.257681
H   38.063633   43.651501   63.005840
H   45.541401   53.298782   70.630081
H    5.684154   30.439779   62.195255
H   45.721310   31.020121   36.560188
H   84.696335   62.002823   13.104389
H   19.322239   60.077091   38.239738
H   59.922890    2.361310   89.775894
H   78.315323   94.088058   81.304375
H   84.507759   16.835062   16.835575
H   43.532349   52.129494   73.869682
H   80.866127   48.432987   62.794872
H   81.058891   99.972603   59.986481
H   74.405037   69.248581   26.372023
H   81.480080   97.485359   20.472195
H   32.578327   25.311310   48.003807
H    8.647339   40.880424   95.705093
H   52.349899   47.392239   57.306503
H   11.965081   28.064178   33.812675
H   42.543175   42.837727   28.701130
H   25.503006   43.025822   63.905342
