100
TIME:    3.341, STEP:  3341
H   91.384430   15.634491   96.087234
H    8.333817   85.888641   88.749313
H   37.183517   14.269011   84.122246
H   82.037384   95.000114   57.032780
H   65.246017   40.553387   75.116638
H   76.213753   97.588539    9.616053
H   77.867744   86.937813   51.723488
H   57.290283   77.640488    1.433725
H   71.499779   65.069855   89.782799
H   83.540596   64.355171   38.520454
H   89.483353    0.675119   17.927790
H   28.323875   91.157898   55.112831
H   30.741745   59.572250   93.060966
H   89.654488   94.777962   11.491016
H   21.140049   71.595779   90.173347
H   67.190048   19.513153   55.709328
H   55.443825    2.952814   77.532761
H   72.537682   32.227959   83.716980
H   97.305305   18.511614   39.378643
H    2.508705   34.866047   43.803429
H   66.017044   23.610092   66.559769
H   82.685272   48.519211   34.761246
H   41.136864   67.450081   36.761292
H    8.626450   76.751740   58.942890
H   10.091249   21.201050   61.213844
H   31.339060   28.059328   76.018639
H   73.981354    3.594698   66.264137
H   50.637493   12.386276   77.208397
H   83.817352   52.213486   99.242195
H   29.101425    8.150105   48.988251
H   47.545353   21.649733   45.049660
H   76.710030   60.200554   89.970970
H    5.692442   24.038586   98.780617
H   19.266445   67.540047   30.999176
H   97.722107    6.366120   28.171997
H   63.042156   46.938496    9.154428
H    0.244810   82.180649   71.723076
H   25.902397   97.805504   58.205425
H    4.046525    8.623297   20.544428
H   48.508213   99.409515    0.896750
H    6.918497   70.819672   21.058210
H   31.351128   61.806129   59.764099
H   40.018826   83.534927   42.797367
H   66.013626   68.766479    7.399578
H   66.847618    0.074114   42.009579
H   34.984135   26.641254   96.734383
H   67.836227    6.532200   57.533905
H   56.417843   29.781996   75.300087
H   62.687645   55.747032   11.199498
H   95.949638   81.592735   49.989719
H   43.289722   47.091751   88.643799
H   67.499054   53.719963   54.732555
H   78.180382   41.380981    8.828770
H   99.326286   52.697372   79.245941
H   74.777756   51.381165   28.763899
H   97.746567    9.020239   78.891281
H    8.057548   93.143349   73.744316
H   77.278557   61.371445   27.499775
H   53.773476   79.933868   54.993618
H   38.546951   84.588333   68.584602
H   70.453468   23.200832   53.904293
H   80.335991   96.844528   44.185608
H    0.880308   79.299126    4.368088
H   72.460869   59.968712   36.432949
H   64.934608   94.003578    6.701634
H   96.102394   76.181862   43.729797
H   19.513908   63.866879   28.366392
H   49.580101    8.612166   25.921721
H   23.416687    9.723366   50.691776
H   98.075256   16.184862   94.697937
H   15.940144   68.078117   22.071049
H   98.486923   40.643936    1.233650
H   89.151672   53.045475   76.085686
H   56.666180   37.954285    4.643938
H   23.255033   33.401295   54.668613
H    4.638661   21.699030   71.121643
H   70.296883   36.970901   50.136738
H   88.946579   32.260372   98.949677
H   21.726416   43.705158   54.959221
H   35.676491   26.995304   33.090988
H   76.258316   63.845837   79.672729
H   92.002991   66.046829    7.404860
H   29.183889   63.024384   48.113590
H   80.005127   98.055267   58.267235
H   89.649902   39.903416   23.879829
H   74.400146   31.774117   73.792343
H   90.292549   60.435005   82.855026
H    9.736357   37.805710   60.997299
H   25.019089    8.151031    0.866015
H   70.949982   71.819046   43.649712
H   60.750092   53.835003    4.017617
H   25.492964   46.767349   97.186531
H   99.619308   27.763479   77.369102
H   70.148842   15.888580   52.084335
H   98.825096   50.463840   92.860252
H   69.874481   63.798775   94.881752
H   97.409851   59.413708   45.045815
H   19.130507   44.684296    2.577524
H   49.555840   51.252033   65.194130
H   46.732555   92.898903   75.891052
