200
TIME:    0.968, STEP:   968
H   31.840895   60.058918   27.787926
H   34.452454   43.506126   19.451698
H    2.879399    1.002565   81.206108
H   42.381760   85.482796   25.462677
H    7.480757    2.180348   43.191612
H   65.935486   33.055931   44.001717
H   13.906646   54.787590   63.742367
H   19.202700   20.321381   99.231842
H   16.992586   76.592224   29.959705
H   85.234207   64.699730   67.357246
H   37.568142   10.145454   15.967155
H   33.788177   61.454208   47.430321
H   29.042034   11.169817   31.454521
H   69.995064   56.278408   77.346123
H   84.474380   77.548775   41.187363
H    8.080830   95.971298   38.618507
H   18.465080   41.811813   80.098557
H   19.275757   18.165081   30.559797
H   89.247284    3.346129   53.200661
H   92.372353   69.707115    9.249669
H   66.821831   13.098953   92.487823
H   73.821877   76.640907   42.520432
H   73.204979   57.248306   31.668278
H   24.028076   94.696449   89.303307
H   34.888962   41.983009   19.433361
H   18.058462   94.644913   82.912422
H   12.994075   73.404305   78.352493
H   11.218278    0.160996    2.646827
H   41.730549   34.401802   34.075516
H   60.151573   40.267117   73.443161
H   12.411030   81.864052   17.084873
H   18.687618   80.568832   11.527090
H    9.533150   24.650080   82.071426
H   72.332436   64.372169   51.014969
H   13.051830   59.719864   28.680719
H    9.268860   33.325394   87.810753
H    7.159099   58.716171   91.420265
H   96.905487   63.586826   82.435883
H   26.126831   20.332603   60.613792
H   83.101120   36.694775   35.258881
H   80.720924   71.215622   25.688148
H   49.574905   27.840792   18.243858
H   63.594036   71.058235   77.360573
H   35.659439   98.591927   44.784351
H   53.651306   98.506393   70.635277
H   30.814909   94.892586   50.605389
H   93.693024   90.544922   12.139831
H   72.392372   65.539497   21.476273
H   15.234702    1.125932   61.691204
H   36.065426   21.086813   74.914062
H   60.890244   61.281700   99.017830
H   93.309868   48.228252   79.193459
H   71.813438   73.603752   17.439545
H   11.571455   97.546616   92.483864
H   46.384201   60.194443   67.229103
H   95.973808   54.414062    2.487077
H    3.352920   19.500343   41.845387
H   75.362289   75.503036   92.162895
H   12.819635   88.540695   24.733646
H   26.265736   91.901283   53.536407
H   48.061760    1.172964   20.965977
H    3.020635   18.149462   54.647499
H   91.503525   40.286743   60.323833
H   41.765556   66.190971   19.921776
H   83.051071   86.931976   47.699451
H   10.181865   44.843864   45.948990
H   58.981789    7.805644    0.875876
H   93.264641   93.105080    1.684849
H   42.416992   15.691123   52.765388
H   41.046322   54.318554   50.943714
H   58.145798   89.183502   92.754364
H   11.680218    4.686578   39.668850
H    0.599312   38.248913   75.118378
H   31.582945   92.962883   81.767006
H   88.009537   12.656203   33.382187
H   71.714821   93.375587   58.120300
H   92.350555   57.051910   61.847507
H   99.591309   19.226423   23.073616
H   17.070650   62.120628   18.797110
H   57.304852   86.606827   59.736725
H   74.266106   17.798109   90.325409
H   58.647854   55.497196   65.351616
H    8.159434   21.651850   68.979362
H    0.934134   85.664894   17.578415
H   12.983994    7.022204   37.151123
H   45.176590   60.302765   12.628344
H   68.482979    4.301100    3.440349
H   69.277412   91.449615   38.900414
H   87.968826   73.829086   79.792480
H   19.797798   18.679209   46.856350
H   10.726122   41.177372   77.516388
H   78.984444   94.922791   14.252689
H   81.844345    8.651604   74.996002
H   27.382864   68.278923   89.094231
H   43.570915   47.078606   98.260155
H   39.123878   43.985878   94.832558
H   89.180962   89.097923   29.682396
H   99.476036   41.922276   58.101273
H   20.521935   62.485367   55.461174
H   79.862450    9.756334   27.428141
H   42.347073    0.554859    3.220493
H   17.642164   87.670547   61.848915
H   38.270157   10.564361   40.675564
H   56.856651   69.283600   19.072910
H   24.373697   17.905624   48.690105
H   16.244715   91.130539    9.806647
H   87.550636   36.964268   50.256222
H   60.461063   62.225883   90.591682
H   91.297600   30.900230   34.335102
H   27.752687   17.910089    9.100283
H   56.772758   89.740547    1.308052
H   15.224648   81.652039   98.803581
H   44.449905   88.722595   78.100349
H   60.758110    3.702663   56.181946
H   39.556190   12.283084    1.246549
H   84.328773   84.501778   11.776684
H    2.643058   18.693861   92.666916
H   37.077572   62.829395   19.426506
H   46.509026   85.045822   47.560825
H   89.994606   61.204647   76.501297
H   48.152718   26.597141   63.664585
H   86.878571   10.234241   69.601654
H   49.787666   91.118607   45.626141
H   93.351837   41.122093   85.984612
H   55.132805   90.927910   68.735680
H   74.392365   82.271362   11.475647
H   77.291054   52.589096   42.939407
H   59.504784   93.279686   41.151073
H    1.426694   26.131771   68.299873
H    3.031007   20.698799   78.904137
H   77.996223   59.192047   31.232327
H   53.756828   93.271835   26.495014
H   90.060555   18.013155    2.791415
H   65.223724   31.668026   58.666607
H   40.389713   88.206696   22.963943
H   42.968369    0.692530   72.956444
H   70.097977   88.419624   91.579811
H   97.427940   41.490391   71.695625
H   65.341919   54.514481   71.377907
H   43.842293   74.175682   75.229095
H   86.658859   41.660004   38.426392
H   23.724602   63.130424   63.217747
H   31.602858   70.159218   74.829132
H   24.354561    0.175251   90.188148
H   74.521362   45.622971   72.873840
H   72.615074   74.517563   94.979210
H   61.949272   93.589684   42.069279
H   22.773964   46.319756   64.648216
H   84.647186   34.396996   90.707336
H   32.668579   96.622856   62.753586
H   50.561279   73.673599   45.848316
H   64.432625   86.965202   25.338455
H    9.995413    4.617458   77.909378
H   29.154022   17.853029   57.961536
H   42.480488   73.106216   73.922905
H   85.113487   45.334019   76.459808
H   66.931625   82.716751   89.375900
H   56.396317   24.979416   26.779690
H   79.062340   98.991013   75.606148
H   55.517780   27.239737    6.178216
H   61.106979   54.833275   64.059502
H    9.422647   19.283611   29.237183
H   96.556145    2.829254   36.929348
H   37.996887   41.566105   40.052979
H   51.983665   46.790665   16.977564
H   24.456467   41.275509   58.322239
H   62.364006   85.792061   59.939259
H   24.268169   64.055023   78.116470
H    3.965817   25.802732   35.137909
H   59.695396    4.965917   82.205353
H   65.457275   14.291427   35.914978
H   21.012918   38.406639   59.693680
H   51.738953   46.171406   69.940140
H   62.260918   57.126335   91.129593
H   37.601685   89.560104   65.000893
H   23.378532   51.600014   24.002686
H   27.939014   75.664246   17.360077
H    8.182175    9.895134   74.189041
H   56.982845    4.455445   60.621357
H   51.671089   62.264305   96.654716
H   68.126617   11.278169   24.793468
H   33.911400   30.994717   96.193008
H   32.114239   89.397919   20.490372
H   67.334511   26.567379    3.972536
H   94.937332   56.758759   75.397568
H   14.500671   42.366714   87.597755
H   56.701355   92.055061   15.395910
H   55.446259   98.061470   51.000526
H   85.535072   64.419472   74.863602
H   62.852005   54.313168   74.900772
H   82.596405    6.938579   74.102730
H   41.684929    4.713455   15.351701
H   20.271095   34.843636   74.484444
H   22.385500   92.585144   47.984699
H   59.911362   21.738716   19.434921
H   77.105484   12.169815   19.592419
H   14.300376    5.410652   28.038557
H    7.751886   82.937492   26.435616
H    2.205296   13.648897   45.458351
H    0.414720   10.328259   87.634598
