100
TIME:    0.594, STEP:   594
H   77.152748   67.548500   98.602188
H   84.747017   36.950779   15.469497
H   89.970184   16.638798   16.365334
H   81.576309    8.176741    7.603472
H   89.850647   20.369240   49.599113
H   18.805328    0.567154   37.571323
H   21.839375    1.446357   36.904346
H   73.199066   39.990200   53.655670
H   39.026344   29.182816   62.698303
H   58.607491   24.914200   30.950495
H   45.002594   90.143539   82.532097
H   33.169247   53.464790   50.647209
H    5.478644   25.769730   66.089287
H   25.670338    3.245829    2.442778
H   87.726936   16.965460   22.218912
H   77.640472   59.782597   83.732895
H   76.309837   21.279160   27.437059
H   13.837718   65.814423   78.953415
H   54.513824    3.270695   94.657806
H   76.570351   93.077942   56.711906
H   29.027740   97.082184   41.121063
H   19.304554   44.883949   68.678474
H   77.813271   89.791252   15.354620
H   63.852493   43.805851   62.960449
H    8.339388   39.065845   40.945023
H   43.935337    9.910657   33.497932
H   10.857096   17.784771   11.753393
H   82.420769   84.165100   86.408524
H   24.087204    2.984597   29.092979
H   23.769751   76.138290   30.609436
H   39.468021   75.309669   62.407646
H    3.262861   36.100044   44.274513
H   12.197948   25.022100   51.309166
H    3.199733   19.286011   46.726555
H   66.007027   14.018458   60.897575
H   24.201286   31.147615   18.600462
H   36.771473   82.782082   55.270153
H   39.438965   48.082317   64.356972
H   24.015820   67.827843   85.194717
H    7.245636   56.575634   84.769035
H   94.648972   76.561714   56.336430
H   78.235832   38.517159   30.707144
H   16.357306   67.061981   44.378090
H   41.428055   22.726149   38.810310
H    5.130753    8.455798    6.937387
H   70.365105   74.370659   85.647667
H   42.352161   57.785145   32.698921
H   56.271137    1.499142    5.331278
H   82.392937   83.254074   20.778692
H   38.347866   39.790455   42.119225
H   43.499302   12.296576   59.679920
H   33.999443    8.619850   35.067146
H   21.200945   25.452942   68.372719
H   62.933880   97.510750   58.027912
H   93.470932   10.577658    5.446554
H   94.309464   11.907679   72.405640
H   33.908592   72.407295   12.481871
H   81.828308   20.791069   98.254471
H   37.124161   63.866547   65.882919
H   19.821289   73.445282   46.714806
H   97.170242   50.946220   68.081757
H   77.828918   22.416489   68.479858
H   14.523228   66.647194   92.807228
H   83.828499   45.025696   11.012167
H   55.900444   13.401983   50.879730
H   64.854988   12.743580   81.307777
H   39.911278   68.896698   95.739975
H   39.334236   51.508896   94.599236
H   86.506981    7.105263   22.977383
H   42.419075   78.020653    0.481672
H    3.169348   54.988026   55.023319
H   24.989332   31.811928    0.110974
H   68.261856   88.925240   46.518162
H   17.116547   11.789738   67.905418
H   90.811203   29.488890   46.427418
H   39.701870   45.642860   55.960033
H   20.885967   75.061150    1.544829
H   59.887527   11.880154   47.245350
H   90.024040   51.762547   24.311768
H   70.394638   76.604713   69.747559
H   22.505962   35.426861   15.490778
H   85.891548   48.106827   37.108810
H   55.379452   17.171785   86.475494
H   91.031219   62.990940    9.174782
H   23.406843   11.728066   90.170906
H   37.621456   30.872459   83.032341
H    6.826651   60.164284   51.867336
H   65.517395   57.736885   89.565407
H   68.009956   61.099083   23.340683
H   13.818588   84.843887   45.447369
H   48.331486    5.506546   46.005932
H   22.236940   40.180199   44.841255
H   23.395798   45.428543   64.868279
H    4.639499   49.263824   66.867729
H   46.322453   96.522034   29.735294
H   42.983566   72.274773   36.768196
H   15.453625    1.768991    3.027330
H    9.046123   21.295227   46.531754
H   80.415337   39.410793   95.295662
H   76.130875   63.447918   40.475571
