100
TIME:    8.818, STEP:  8818
H   20.996708   13.368908   91.072891
H   56.944473   82.698746   34.107822
H   31.344225    8.306453   19.830330
H   82.956680   69.348747   56.819260
H   16.182291   79.558838   26.612698
H   91.274658   91.654900   52.022514
H   90.818871   56.772675   80.032249
H   26.808884   51.470264   98.553627
H   36.864601   38.477997   45.025883
H   33.909218   42.998417   52.981087
H   80.026154   21.053223   90.355064
H   19.281998   65.691383   65.254158
H   81.455002   28.245735   48.798393
H   18.466887   77.896339   28.293758
H   87.709419   82.365608   26.843330
H   46.971008   40.474510    1.069431
H   15.016036   65.211540   76.125679
H   89.630386   65.755089   93.851639
H   82.608734   48.280437   27.928288
H   54.941273   18.553991   16.702997
H   41.004097   78.357819   17.908979
H    7.770592   55.790009   68.344131
H   68.009193   22.910265   80.056656
H   99.738159   42.317108   52.173389
H   14.202556   86.848648    1.662076
H    6.028973   66.148849   61.069889
H    1.692544   75.924271   74.931686
H   88.504517   68.034134   58.250710
H    2.909509   49.129757   40.339806
H   39.113670   72.593857   84.394562
H   63.101643   12.783199   11.726982
H   22.531055    8.881493   82.937660
H   91.484634   23.315311   92.192032
H   50.683884   65.605621    0.263962
H   61.500069   92.023689   61.548306
H   39.170826   76.095795   91.704170
H   25.560268   81.600349    3.289326
H   99.529015   97.577095   44.702377
H   72.862724   89.289024   89.782974
H   32.636711   86.671730   31.816118
H   32.603104   58.747047   50.092739
H   57.080902   76.182953   30.135834
H   87.174896   16.384449   38.406078
H   16.285709   60.657822   42.911259
H   91.759735   83.986107   10.691228
H   64.299278   31.100838   18.985411
H   10.632333    4.390543   10.112064
H   56.725826   86.192535   14.185057
H   22.789841    2.144322   92.719910
H   10.873739   64.949516   66.979301
H   42.896107   18.322556   46.383636
H   33.684368   45.494236   95.189034
H   91.777596   73.138489   90.736893
H   72.484497   63.335396   20.929981
H   38.693001   31.371946   75.343872
H    4.578568    3.258043   92.441254
H   55.273682   35.106972   94.652534
H   69.449402   44.136177   86.422997
H   85.734520   11.360353   34.527557
H   77.121193    5.568112   12.805687
H   15.946579   68.491821   26.875561
H   85.949852   45.865372   96.367577
H   72.715607    5.558171   28.793732
H   48.556637   89.798401   87.730301
H   82.325211   56.565784   16.750631
H   59.645210    3.904693   67.573341
H   80.083633   53.221737   92.794540
H   71.246140   21.848454   87.753998
H   96.388916   16.181084    7.182261
H    9.113997   91.550186   83.140778
H   42.016682   95.422585   56.376656
H   47.126015   58.808006    2.402349
H   32.041611   82.136040   35.656536
H   36.089962   91.328773   79.218239
H   87.243500   41.299259   69.888351
H   34.120628   72.724968    2.590457
H   67.645340   62.581173   47.132050
H   46.260593   74.138512    1.433482
H   84.368385   27.617474   16.065104
H   67.082359   28.661562   61.242638
H   83.442360   20.508615    7.022960
H    2.992351    1.658182   49.289650
H   75.632957   54.586338   69.725548
H   56.812523   66.734596   58.028385
H   22.967697   97.302475   92.947540
H   48.346905   32.953018   54.131927
H   56.089130   62.211723   44.019508
H   97.846733   99.449013    4.148920
H   38.684330    3.200601   56.070930
H   86.709213   46.480896   39.438927
H   84.891563   49.576000   19.682152
H   30.741602   58.677185    1.547942
H   50.704258   92.098930    0.914061
H   99.491318   48.150745   21.382296
H    4.131645   59.867855   18.714495
H   22.252274   47.518372   11.987896
H   62.670921   73.725731   30.057632
H   21.256533   22.775394    1.858370
H   88.643974   74.880455    6.436779
H   86.931351   52.348179   48.274677
