100
TIME:    0.974, STEP:   974
H   51.454506   32.700478   98.254288
H   74.176643   57.555180   39.439816
H   96.499115   43.977154   11.903511
H   81.640091   92.520470   86.775139
H   86.447021   50.827919   39.295464
H   12.912766    0.153588   75.204582
H    1.923930   27.106588   66.620842
H   43.331818   72.864670   18.764160
H   29.685219   92.647171   38.777252
H   48.222664   30.368988   45.831932
H    9.655914    5.433595   45.928612
H   18.664700   72.512337   23.598406
H   81.305786    2.778904   28.321497
H    6.855078    2.074202   31.361988
H   92.348213   83.022980    3.952214
H   62.361847   26.543613   52.189926
H   45.758385   46.409164   62.035561
H   21.958099   47.335114   65.779587
H   60.431030   19.213121   14.677462
H   66.284096   85.111023   82.636284
H    6.478022   59.253448   30.808548
H   55.741322   45.385506   36.321255
H   72.739723   86.700737    4.482008
H   28.546402   48.363346   34.737030
H   94.748772    8.928974   43.748901
H   42.192936   98.588211   97.880417
H   78.090179    1.988115   19.294134
H   50.357185    1.902269   98.967728
H   32.349838   37.460575   11.131172
H   38.340160   66.733383   60.818722
H   54.416142    9.386824   32.337456
H   27.255987   25.602150    9.095985
H   38.965015   97.220268   85.542564
H   19.255913   84.461494   30.717455
H   56.561531   85.293129   84.038361
H   57.240570   60.997509   17.292936
H   73.217674   68.866066   85.212776
H   23.734161   41.127209   91.174294
H    6.932098   59.715965   48.774132
H   71.452797   21.000368   14.665991
H   68.678207   89.602180   65.291550
H   44.083611   55.572975   48.560230
H   19.630468   69.340729   71.825356
H   17.162889   29.094175   75.966072
H   72.167442   93.462479   39.456261
H   65.511894   81.514214   87.137840
H   46.364613   78.283157   35.945992
H   56.291431    5.411676   28.843504
H   93.502556   51.781815    5.619885
H   46.317684   45.574299   15.542534
H   43.470310   75.610008   63.686573
H   52.467155   73.359711   10.119789
H   29.083788   27.656311   46.301910
H   54.134899   91.312325   74.796707
H   63.220917   43.891087    8.671156
H   94.784927   11.508318   59.469543
H   57.997795   61.442635   48.622993
H   53.532410   84.905205   88.466873
H   67.093178   79.922150   36.708759
H   94.745392    2.651778   35.906700
H   21.141382   33.275780   38.454742
H   64.341980   18.879501   51.285637
H   40.298805   40.734413   66.737892
H    9.921667   47.092804    0.694023
H   70.983482   83.052605   86.268074
H   41.510872   93.852730    3.776226
H    9.422533   82.035736   14.086914
H   13.085071   73.241074   12.765433
H    5.445057   79.800903   99.143867
H   50.116371   97.131981   99.682159
H   91.102699   29.130491   50.465824
H   93.656631   19.200539   27.932936
H   43.485550   70.127022   36.774052
H    8.753070   87.743073   45.320885
H    9.133023   30.029585   75.233574
H   48.686398   69.998070   30.392162
H   55.388523   42.126579    8.268669
H   77.740616   87.033485   68.231857
H    8.237780   50.649265   28.548904
H   51.758774   55.909302   37.010132
H   29.942333   39.358135   38.201839
H   14.402733   50.588516    5.331982
H   79.424126   23.513720   22.668430
H   17.171698   95.508034   74.465919
H    4.903265   87.959564   53.334053
H   28.874660   44.831844    9.420816
H   32.205986   32.535194   69.987152
H   71.634644   27.313221   85.616737
H   75.895699   39.940941   20.231323
H   80.222427   69.205765   59.032879
H   63.882633   26.025377   54.030834
H   50.353092   68.760216   52.080482
H   47.777306   56.813583   94.265862
H   41.368889   72.314079   92.490593
H   39.752934   62.485649   38.467216
H   74.369980   57.268669   17.140816
H   85.291031   23.576094   81.173309
H   10.441348   24.530701   40.452194
H   62.312920   41.048824   63.462826
H   99.730118   53.686413    3.875534
