100
TIME:    0.835, STEP:   835
H   60.854652   45.447517   98.381546
H   78.043175   50.018307   30.671721
H   94.110901   33.976772   13.535599
H   81.616760   98.247093   94.393669
H   87.692032   39.686455   43.064430
H   15.068203    0.304865   61.439281
H    9.208782   17.720228   55.750858
H   54.256943   60.839039   31.527107
H   33.102104    6.011520   47.527321
H   52.021324   28.373684   40.388458
H   22.585358   99.840759   59.317245
H   23.970310   65.544945   33.492287
H   90.148117   11.188812   42.136589
H   13.737366    2.502770   20.783642
H   90.657799   95.439148   10.634069
H   67.950607   38.702084   63.728012
H   56.933784   37.216873   49.379723
H   18.987679   54.094650   70.598434
H   58.266579   13.381511    7.354795
H   70.046700   88.025238   73.153419
H   14.726456   73.091034   34.580864
H   42.413136   45.202042   48.157337
H   74.595573   87.831215    8.459095
H   41.460999   46.696262   45.060860
H   99.720329   19.952724   42.723412
H   42.830288    2.729988   10.908942
H   90.075790    7.766328   16.535810
H   62.085098   95.414169   94.373703
H   29.327454   24.849577   17.701412
H   33.010159   70.173599   49.768459
H   48.948277   96.921562   43.336815
H   18.479406   29.442169   21.963921
H   29.173702    7.390031   73.020348
H   13.382825   97.200050   36.573341
H   60.016594   95.800423   75.573563
H   45.155273   50.078747   17.771215
H   59.885571   73.956398   74.260078
H   29.478813   43.671314   81.364799
H   13.181253   62.683205   62.097015
H   84.545555   34.013142    3.729731
H   78.178040   84.832115   62.016125
H   56.576134   49.334137   42.029758
H   18.433180   68.507187   61.784912
H   26.038626   26.764818   62.374886
H   84.225166   98.947311   27.560987
H   67.287148   78.901176   86.592751
H   44.896900   70.785522   34.758247
H   56.284008    3.980549   20.242964
H   89.438774   63.293388   11.164901
H   43.402409   43.458630   25.264008
H   43.480915   89.029396   62.220982
H   45.711861   86.257339   19.245270
H   26.200327   26.850342   54.375389
H   57.353474   93.579643   68.662857
H   74.286102   31.705057    7.491631
H   94.611008   11.654400   64.201431
H   49.186218   65.453392   35.402977
H   63.882751   98.031898   92.047073
H   56.130638   74.049179   47.380428
H    3.918219   91.968185   39.860191
H   12.372864   39.739441   49.291847
H   69.275360   20.173294   57.575378
H   30.870090   50.213036   76.273781
H    0.376678   46.336678    4.468290
H   65.466835   94.153770   73.323784
H   50.049904    0.762848   95.557579
H   20.575132   77.229614    7.375641
H   22.686790   65.291672    6.120429
H   98.517265   89.788559    7.861809
H   47.300781   90.141258   99.974854
H   95.516441   38.588802   52.132908
H    5.118006   23.813652   17.755983
H   52.548462   77.003212   40.338345
H   11.812306   96.538742   53.582069
H    2.431438   29.831804   64.696587
H   45.399952   61.089645   39.744678
H   42.767681   54.173698    5.809137
H   71.210144   96.121849   60.555584
H    1.574873   51.056492   26.999004
H   58.575577   63.480110   48.985138
H   27.222187   37.920116   29.894127
H    3.973385   49.680740   16.955681
H   70.628456   21.193907    9.429457
H    7.609524   83.613625   87.162056
H   11.671612   96.653427   66.808586
H   32.074146   39.725605   99.768044
H   22.922491   42.641624   63.359112
H   69.397018   38.441734   87.061119
H   73.011177   47.680367   21.368694
H   92.511337   74.926025   54.063442
H   58.194187   18.519789   51.095409
H   40.068501   58.305946   49.432449
H   38.858620   52.649055   83.512535
H   27.933596   63.883202   83.118019
H   42.155994   74.935883   35.273033
H   62.889160   62.757744   24.320305
H   96.324326   15.599132   89.167252
H    9.930989   23.347198   42.676033
H   68.934593   40.449650   75.106911
H   91.097763   57.257069   17.263437
