100
TIME:    7.680, STEP:  7680
H   97.955559   17.728355   92.114761
H   88.374222   21.031353   62.355221
H   11.783113   26.433537   33.188358
H   82.765671   16.234409   19.195339
H   26.379595   88.343208   57.468658
H    8.920316   92.887779   39.322205
H   50.460484   79.928375   91.039154
H   16.253441   53.018749    3.041018
H   64.838814   47.892746   16.657856
H   64.991676   26.658419    8.421478
H   85.880142   75.264114   99.973419
H   62.719299    8.649279   46.257942
H   54.021645   97.126205   61.888645
H   74.813652   81.403969   41.691936
H   73.887276   84.017380   81.570343
H   92.726471   40.008179   95.533478
H    6.527126   89.943451   72.529053
H   65.300766   21.130005   33.299278
H   64.879578    0.536902   67.972595
H   85.604416   42.719112   39.222694
H    8.534622   91.648682   48.793728
H   98.669418   54.279297   65.255341
H   83.203133   32.161278   12.615943
H    5.474821   28.703341   36.690079
H   54.903145   77.098129   93.258461
H   11.395504   99.697067   68.161171
H   99.823532   23.227896   52.353359
H   84.525505   14.916129   20.631826
H   78.164909   45.881458   94.135033
H   95.479111    0.759134   93.926964
H   18.311235   10.736506    1.761911
H   50.677120   40.320415   88.288017
H   11.325384    6.577380   89.672005
H    2.599528   69.896553   48.204620
H   89.821571   78.186272   92.308731
H   40.246662   86.959106   95.281258
H   16.411270   23.277533   13.619166
H   46.563103   18.403240   64.396278
H   20.896137   14.083086    0.063680
H   39.823288   93.207184   42.281097
H   10.378237   19.702963   23.281950
H   52.985405   71.720276   72.036583
H   77.381317    9.557907   56.206974
H   88.949966   41.550926   31.645359
H   90.472694   28.878971   13.308277
H   78.989647    9.399550   14.362112
H    1.735719   42.503120   99.183800
H   56.656368   74.471497   43.772411
H   89.525154   96.393196   38.115669
H   86.983154   47.627949   46.547112
H   42.974247   28.189409   34.384766
H   78.376389   51.092243   69.892609
H   68.179237   66.539978   56.828285
H   98.843811   81.898361   70.713638
H   29.302284   31.643105   65.671844
H    3.161190    4.455109   31.181473
H   83.130371   67.943245   86.419289
H   54.186935   51.606300   15.735511
H   95.978889   63.276714   21.892387
H   52.217087   18.098057   45.173119
H   44.161236   21.416412   15.603375
H   26.339729   56.457718   47.859337
H   95.455452   83.213409    6.829803
H   70.412651   83.599274   18.626133
H   37.154984   47.455875   10.773776
H   29.552887   60.477776    0.285392
H   71.387634   13.880575   37.853252
H   49.855675   56.764946   33.351013
H   39.672729   97.950523   78.557007
H   86.001564   34.390743   85.554443
H   78.157494   72.854919   70.025154
H   40.838017   96.593163   18.987455
H    6.240297   38.428150   64.837463
H   61.138256   63.350910   46.833679
H   32.423767   39.623585   83.604523
H    7.215011   99.788231   79.162300
H   64.290733   61.078056   26.946901
H   92.800690   48.545406   38.577671
H   29.797194   30.960140    3.365129
H   22.890587   90.653069   59.282326
H   61.163704    8.735482   39.006012
H   17.597900   94.276566   44.495197
H    3.651410   35.554844   61.348434
H   78.520515   69.353394   61.966869
H   78.377823   68.489586    3.263202
H   74.537766   91.153137   75.105667
H   80.084618   44.953911   89.755318
H   79.544548   90.512756   15.948288
H   15.065495   66.562126   65.378304
H   87.323608   93.298843   98.759552
H   38.319965   88.129494   95.649338
H   46.541126   73.088852   79.860252
H   77.756348   57.958782   12.910769
H   89.508430   79.109581   44.649349
H   23.809753   61.803017   92.565338
H   28.258133   92.457703   70.766884
H   52.999901    8.419154   95.504570
H   23.453142   66.464195   24.705713
H   42.855461   69.966301    1.755929
H   16.246325   81.551804   57.902317
