100
TIME:    8.342, STEP:  8342
H   53.186516   57.019920   91.508682
H   70.090836   56.906185    4.094346
H   23.162249   74.060959   25.417534
H   82.876785   88.959343   82.909615
H   20.447596   41.405338   39.518616
H   98.654053   92.170586    4.881866
H   15.766332   24.629457   42.808430
H   64.221542   10.291518   42.259384
H   48.565590   84.243317   74.988815
H   46.910316   36.163761   34.343758
H   24.302505    1.901234   36.206001
H   37.450851   41.831829   99.136909
H   11.808109   57.055153   96.102341
H   42.034874   79.363503   92.069450
H   81.927925   24.884262   49.733253
H   66.109497   82.107079   40.582306
H   53.293037   33.729130   32.793526
H   79.452713   88.917381   10.352060
H   75.193024   28.310314    2.852062
H   67.765488   28.662527   84.294777
H   69.250618   25.744747   30.828367
H   62.136005   55.158112    8.879883
H   74.364479   26.779726   93.675125
H   43.966003   36.622772   87.524521
H   31.225739   24.597786   98.147499
H    8.274197   80.181320    5.862480
H   42.739098   95.709183   65.489548
H   28.668261   45.816059   42.515022
H   92.559288    5.943753   62.841148
H   20.862396   84.374741   46.553375
H   44.366261   70.098213   49.386589
H   92.476372   22.031979   27.003319
H   57.957127   58.141823   49.310196
H   30.571999    9.228176   20.315939
H   73.346321   28.063530   32.586361
H   97.793869   38.811417   93.200386
H   79.904991   99.031990   65.782310
H   19.202499    6.287722   11.113784
H   92.952690   99.660851   35.910210
H   77.469803   31.232958   94.365601
H   65.134903   42.415779   38.878384
H   97.195465   74.316315    5.835079
H   83.078461   13.528988    4.025480
H   46.678501   52.664688   96.372101
H   33.049347    2.761941   69.958672
H   70.443932   22.023674   17.051588
H    6.910751   78.504219    5.541022
H   56.696774   81.289886   84.733253
H    8.877213   41.565308   11.707508
H    0.882323   57.704014    0.259226
H   42.928791   64.277260   41.364777
H   10.549658   89.663177   26.436413
H   81.906929   70.378479   18.381773
H   83.510010   71.100052   99.926651
H   76.592293   89.657776   71.298279
H    3.985710    3.758749    8.645432
H   25.098785   48.841652   49.381111
H    4.893607   89.088020   98.683250
H   48.191128   91.247398   71.071564
H    8.533719   68.982956   26.344261
H   85.920090   90.630005   63.986797
H    2.844047   50.295914   17.905067
H   40.399052   38.040314   61.434479
H   15.869576   87.205444    0.651669
H   63.433563   94.582001   72.422989
H   88.886787   27.567680   39.428501
H   18.274248   36.766994   69.813828
H    4.126678   94.624687   64.998444
H   72.667358   50.383415   37.037308
H   99.446419   67.639786   84.150360
H   57.134998   27.811043   62.085518
H   86.323853   74.612694   67.510178
H   63.077194    5.682740   47.862316
H   46.567104   21.455055    7.500711
H   64.313629   40.598362   33.797596
H   22.866327   42.217003   34.618820
H   24.414551    3.778375   38.688599
H   23.900225    5.261257   75.140930
H   61.540588   29.015636   10.752981
H   90.426231   54.591362    2.250533
H   74.123695   15.584176   78.572876
H   67.272202   98.569626   89.112343
H   45.524834   46.625889   24.392849
H   24.066021   26.002394    1.505192
H   46.144516   27.078686   39.089592
H   59.303417   15.468619   21.077179
H   24.298174   96.820793   21.322060
H   90.191338   37.538918    9.084442
H   28.805813   29.702574   59.963997
H   28.793669   66.065689   22.423899
H   65.411705   23.875225    9.629905
H   95.522423   22.877415   92.476799
H   20.191624   77.819511   64.104248
H   53.487144   19.272327   89.287071
H   12.362434    2.503286    7.777274
H   82.936569   66.315491   36.573921
H    0.453990   46.408897   57.432701
H   22.175325   99.222771   11.414904
H   11.319333   72.824974   46.308025
H   57.363743   64.561386   94.128403
