100
TIME:    0.949, STEP:   949
H   53.145180   34.993111   98.277176
H   74.872063   56.199627   37.862820
H   96.069580   42.178524   12.197052
H   81.635895   93.550438   88.145378
H   86.670944   48.824059   39.973335
H   13.300434    0.180796   72.728844
H    3.234159   25.418394   64.665810
H   45.296768   70.701736   21.059654
H   30.299767   95.050812   40.351006
H   48.905876   30.010120   44.852890
H   11.981354    4.427683   48.336639
H   19.618946   71.259209   25.377867
H   82.896133    4.291470   30.806295
H    8.092899    2.151282   29.459408
H   92.044182   85.256104    5.153986
H   63.367020   28.730389   54.265121
H   47.768349   44.755875   59.759331
H   21.423851   48.550858   66.646286
H   60.041740   18.164270   13.360437
H   66.960823   85.635162   80.930733
H    7.961534   61.742348   31.487087
H   53.344166   45.352509   38.450047
H   73.073509   86.904060    5.197311
H   30.869171   48.063511   36.593834
H   95.642937   10.911663   43.564461
H   42.307568   99.333221    0.223773
H   80.245865    3.027370   18.798033
H   52.466522    0.735323   98.141464
H   31.806244   35.192356   12.312870
H   37.381527   67.352127   58.831264
H   53.432713    7.144841   34.315758
H   25.677465   26.292801   11.410362
H   37.203960   99.049416   83.290367
H   18.199623   86.752602   31.770597
H   57.182945   87.182930   82.515915
H   55.066956   59.033703   17.378958
H   70.819756   69.781593   83.242867
H   24.767372   41.584782   89.409996
H    8.056028   60.249641   51.170334
H   73.807610   23.340780   12.699038
H   70.386810   88.744255   64.702560
H   46.330467   54.450882   47.385685
H   19.415129   69.190811   70.019478
H   18.759245   28.675226   73.521614
H   74.336098   94.448959   37.316788
H   65.831184   81.044243   87.039803
H   46.100636   76.934662   35.732368
H   56.290096    5.154279   27.296644
H   92.771660   53.852242    6.617190
H   45.793354   45.193783   17.291000
H   43.472218   78.023567   63.422977
H   51.252174   75.679428   11.761063
H   28.565180   27.511353   47.753975
H   54.713779   91.720116   73.693497
H   65.211121   41.699352    8.459011
H   94.753647   11.534592   60.320602
H   56.412979   62.163994   46.245293
H   55.393982   87.266121   89.110794
H   65.121361   78.865860   38.628124
H   96.395248    0.730124   36.617760
H   19.564291   34.438309   40.403862
H   65.229279   19.112198   52.416885
H   38.602982   42.439201   68.452980
H    8.204958   46.956810    1.372847
H   69.991280   85.049217   83.939964
H   43.046669   95.095558    2.298078
H   11.428396   81.171326   12.879848
H   14.812032   71.811325   11.570289
H    4.199010   81.597244    0.711783
H   49.609970   95.874657   99.734802
H   91.896538   30.831560   50.765659
H   95.718094   20.030235   26.102549
H   45.115570   71.363747   37.415112
H    9.303292   89.325027   46.806709
H    7.927721   29.994013   73.338432
H   48.095310   68.395897   32.074345
H   53.118587   44.293327    7.826307
H   76.566071   88.668083   66.851318
H    7.039412   50.722507   28.270145
H   52.984818   57.270958   39.163910
H   29.453098   39.099499   36.707623
H   12.526951   50.425247    7.422579
H   77.842171   23.096487   20.287296
H   15.451857   93.368752   76.749397
H    6.120606   89.523209   55.757530
H   29.450108   43.913456    7.684700
H   30.536291   34.352898   68.795059
H   71.232193   29.314697   85.876518
H   75.376900   41.332924   20.435886
H   82.432663   70.234589   58.139095
H   62.859531   24.675451   53.502880
H   48.503345   66.879951   51.604218
H   46.173225   56.064568   92.331810
H   38.952469   70.797737   90.804878
H   40.185139   64.725006   37.892723
H   72.305084   58.255913   18.432091
H   87.275436   22.141386   82.611069
H   10.349557   24.317841   40.852165
H   63.503868   40.941059   65.557045
H   98.177536   54.328617    6.283442
