100
TIME:    1.523, STEP:  1523
H   14.328259   82.354507   97.751663
H   58.905235   87.319832   74.070641
H    5.933752   83.475060    5.457299
H   81.732239   69.902367   56.683666
H   81.529678   94.832695   24.409401
H    4.399341   99.558113   29.573240
H   73.148857   64.179314    9.553444
H    0.181498   20.361179   68.358070
H   16.189751   39.863220    4.218955
H   33.219322   38.251381   67.331047
H   58.589279   27.523502   93.046524
H   97.709946    0.031029   84.520531
H   46.383873   69.563728   73.754570
H   79.671730    0.381632   73.141731
H   99.024742   33.986149   77.563980
H   40.288254   78.523918    6.618837
H    1.620571   82.715408   12.021104
H   33.690193   20.637375   46.746872
H   68.982277   42.245888   43.599316
H   51.484520   73.470322   20.025522
H   73.899658    4.597254   15.907825
H    8.383031   46.110123   89.574196
H   65.409782   82.235756   88.774689
H   77.538307   54.947727   93.962570
H   75.112907   65.385780   47.799217
H   39.675625   82.227783   46.421478
H   30.748440   79.168716   30.188520
H    4.036103   27.528194   17.114267
H   44.287170   87.270660   85.179741
H   59.391750   53.145767    4.463096
H   76.012245   58.619858   88.895416
H   61.920322   10.435071   58.272331
H   77.636307   57.052193   35.000824
H   42.452034   34.148781    7.590073
H   42.915276   43.793098   17.469093
H    4.973344    4.122921   15.403920
H   25.874863   48.761086   28.471624
H    1.044168   31.078907   29.915363
H   82.252457   47.996437   96.154099
H   19.744200   69.605827   57.861538
H   31.160957    8.441073   78.225754
H   94.742615   80.211388   74.353241
H   24.359327   72.632919   11.481626
H   82.105736   38.295731   29.645212
H   24.546913   71.799362   86.437088
H   58.438709   91.965675   89.355415
H   52.161549    7.897092   40.637154
H   56.320751   11.064108   62.812542
H    9.550756    6.315219   83.721451
H   57.831974   53.930431   77.143639
H   43.428425   22.607882   69.475128
H   79.148140   22.415689   74.080521
H   40.472420   30.839600   14.415730
H   41.422688   82.357231   99.023209
H   19.513527   92.019135   13.329857
H   95.471848   10.931347   40.780289
H   92.803818   45.601585    0.837316
H   12.651390   33.059456   74.326370
H   10.393303    3.118443   94.561630
H   58.515179   44.851292   20.291832
H   55.772869    7.746305   95.651268
H   44.856903   13.769028   26.443420
H   77.537567    3.295724   29.074562
H   47.621468   50.079231   85.791008
H   92.772255   39.204624   37.395115
H    7.785019   66.560219   36.236996
H   65.375443    1.018046   40.593395
H   75.161690    4.638615   39.010807
H   32.808418   40.353256   64.714088
H   61.236938   24.745157   98.526123
H   73.670006   91.775475   43.881443
H   48.388363    0.979536   68.129692
H    7.688890   42.971790   22.696377
H   96.670982   53.002014   12.692177
H   35.601929   30.810747   16.851635
H   61.666676    5.182165   93.451347
H    5.233097   94.543442   17.982500
H    3.533640   51.136215   98.548492
H   34.554359   49.040867   34.671364
H   24.834854   26.007753   89.713448
H   40.685932   45.037792   71.014839
H   55.596104   54.173904   59.425247
H   14.162856   32.676300   74.958130
H   54.939739   42.486675   24.320747
H   78.171768   53.620667    0.114791
H   16.237843   64.999443   47.545067
H   68.872444   92.618408   96.165512
H   80.472458   83.359634   79.911949
H   87.288521    9.374316   15.739178
H   31.684479   46.616020   78.660362
H   86.349953   55.668079   65.624710
H   90.973534   10.050318   62.539261
H   83.002907   73.264328   36.738815
H   94.431068    5.613367   29.507114
H   30.261322   13.308029   51.083092
H   19.715179   35.588799   88.783859
H   41.713486   55.082272   49.600113
H   12.457082   29.205109   31.668751
H   36.159691   43.415348   17.476871
H   33.824844   39.583607   50.999336
