100
TIME:    9.232, STEP:  9232
H   92.999908   75.403267   90.693863
H   45.510452    5.131532   60.213398
H   38.460484   38.090508   14.970703
H   83.026169   52.292473   34.124939
H   12.472551   12.742571   15.388678
H   84.856445   91.206383   93.021667
H   69.119499   84.726830   12.407604
H   94.269302   87.287338   60.543114
H   26.687691   98.672684   18.965319
H   22.600225   48.942844   69.190865
H   41.516876   37.710480   50.474968
H    3.479675   86.443184   35.784706
H   55.055679    3.188400    7.657096
H   97.968582   76.620277   59.800488
H   92.737862   45.385078    6.934846
H   30.325188    4.264415   66.704163
H   81.724434   92.596336   13.813734
H   98.487015   45.609734   79.499100
H   89.058533   65.649109   49.738209
H   43.788364    9.762114   44.890068
H   16.436745   37.142746    6.671912
H   47.461178   56.339600   33.088181
H   62.481697   19.544809   68.212021
H   61.272877   47.269745   21.425261
H   99.395981   54.017517    4.718132
H    4.076187   53.944138   22.109339
H   65.994316   58.715412   83.143967
H   53.571686   87.358261   71.934959
H   11.912023   86.691460   20.770218
H   54.988640   62.347458   17.306103
H   79.393715   49.906612   78.972641
H   48.671375   97.443268   44.611580
H   20.646347   93.025757   29.488424
H   68.176041   27.664886   82.822365
H   51.196815   60.678047   86.735046
H   75.159561    8.522103   90.402840
H   65.266998   66.439217   35.910725
H   82.415886   90.002846   73.917061
H   55.387959   80.268150   49.662827
H   93.642380   47.914772   64.390396
H    4.310135   72.953125   59.846401
H   22.191345   77.806458   51.269962
H   90.737762   18.868664   68.308708
H   89.852943   67.608192   83.389839
H   55.847519   67.656303   46.120068
H   58.957962   38.997082   20.667349
H   13.869077   26.906404   14.087914
H   56.751095   90.456604   39.800999
H   34.890320   67.855080   76.206909
H   19.563429   71.254021   38.031338
H   42.867680   78.353294   50.748779
H   53.804455    7.077574   68.012703
H    0.362681   75.539001   66.693863
H   62.895447   56.579216   39.198189
H    5.728940   67.654083   78.862518
H    5.094204    2.822556   78.347717
H   81.520340   23.161263   34.027565
H   38.621765    5.038347   75.759666
H   18.386993   28.854090    2.744329
H   49.801212   37.390667    1.030549
H   42.063816   49.239605   94.598656
H   71.256187   42.011917   77.637260
H    0.820611   77.307762    0.404510
H   76.985474   92.053619   76.492111
H   98.756088   23.498722   55.304752
H   34.212410   83.323601   92.052254
H   46.868118   67.533997   12.782856
H   42.648453   45.525764    7.545593
H   17.022806   86.433701   81.218140
H   17.522110   12.344795   82.262695
H   28.867935   67.254463   51.411385
H   13.034766   45.061913   32.747974
H    5.048200   61.656239   25.040585
H   26.977489   65.125282   54.619301
H    7.186146   41.908863    1.278190
H   43.909035   99.256950   74.732071
H    5.245112   26.747204   54.475723
H   65.708183   47.069572   24.298477
H    4.222604   26.401424   20.686090
H   46.779076    6.108111   25.576073
H   91.547249   24.791636   31.767479
H   34.058090    4.345730   14.655146
H    1.817624   61.509922    9.151464
H   85.295708    2.161163   20.217152
H    2.809708   71.402206   52.814758
H   38.817501   48.161530   82.881226
H   83.739250   32.110558   63.760567
H    4.504640   66.321938   99.856659
H   47.275639   80.149498   52.684944
H   50.106510   29.446732   54.236824
H    1.834195   71.930313   28.425072
H   61.373409   89.814362    9.435151
H   77.242554    4.519522   32.929314
H   39.502144   73.267685   49.297131
H   96.973618   22.783092   28.226526
H   56.446945   31.169699   90.603943
H   29.809273   97.484489    6.247082
H   20.457415   43.259426   93.545372
H   68.921867   76.668205   71.761436
H   12.647259   41.725910    8.391573
