100
TIME:    9.467, STEP:  9467
H   77.107574   53.852516   90.478714
H   39.020126   17.866222   75.030449
H   42.499905   54.997627   12.211866
H   83.065613   42.610771   21.243647
H   10.366781   31.578781    9.017132
H   81.213257   90.951790   16.294254
H   56.803272    0.594120   30.784908
H   75.798767    7.618346   38.965469
H   20.910942   76.078461    4.172875
H   16.180719   52.317097   78.392067
H   19.657745   47.166275   27.837881
H   94.510857   98.222588   19.057571
H   40.070557   88.963783   84.303040
H   86.332611   75.895943   77.683372
H   95.592171   24.393715   95.633324
H   20.875668   83.710434   47.197327
H   62.827187    8.140055   35.206711
H    3.513133   34.174568   71.352127
H   92.719650   75.506516   62.118237
H   37.457607    4.771555   60.889977
H    2.491086   13.747749    0.293033
H   69.990860   56.651566   13.075745
H   59.344109   17.634466   61.488617
H   39.437054   50.081024    3.971943
H   90.990829   35.380241    6.452770
H    2.967618   47.016342   99.994652
H   45.729256   48.945858   87.805527
H   33.743919   98.327271   79.701836
H   17.022167    8.012533    9.662258
H   63.999794   56.531265   35.987495
H   88.641533   70.979248   60.380188
H   63.509480   90.949356   22.856438
H   37.200264   75.831772   50.659081
H   78.105164    6.128665   72.921928
H   45.348351   42.885231    1.031792
H   95.587952   26.928991   89.664162
H   87.807434   57.833260   54.427876
H   72.701912   85.703453   90.501457
H   45.467800   75.147606   26.889515
H   71.507141   25.914001   82.878860
H   88.249451   81.017624   65.382896
H    2.386578   78.728012   63.266308
H   92.760162   20.278786   85.283958
H   74.849892   71.552589    6.367267
H   35.463951   58.385883   66.230911
H   55.926155   43.479351   21.622072
H   15.706359   39.687687   16.344667
H   56.765438   92.877029   54.341480
H   41.758949   48.392712   66.833588
H   24.495718   74.832664   21.599907
H   43.995335   55.752708   51.469635
H   65.225281   85.271881   52.586525
H    5.237083   76.901611   53.044914
H   57.453972   52.744186   49.568367
H   87.017952   88.247421   80.859818
H    5.386896    2.575358   70.347763
H   96.419403   16.380486   56.377953
H   21.123545   82.845573   69.706810
H   36.921413   38.784721   84.703957
H   34.294353   55.454212   94.346596
H   56.889370   38.311832   76.278725
H   62.915581   39.824570   67.005318
H   16.774883   61.271996   84.289856
H   93.121643   93.333755   70.112946
H    8.083606    4.728810   77.188988
H   19.776676   71.641014    5.947453
H   28.013710   75.659454   24.129272
H   26.415466   58.965401   18.779953
H   28.735872   69.548096   66.480438
H   22.294830   24.147646   81.764267
H   21.404957   51.263882   48.592934
H   93.683006   37.259178   49.972439
H   89.725937   50.032818   19.014622
H   21.804951   50.252979   40.656136
H   18.505671   42.254894   19.095755
H   49.465256   14.318255   58.919205
H   26.588585    6.406683   58.644234
H   76.748909   31.704353   37.277336
H   15.491403   25.711155   23.309114
H   35.254265   93.306435    5.330766
H   96.147850   27.222818   45.813118
H   51.691338    5.871270   94.994865
H   16.681818   65.439980   31.532330
H    1.464064   22.271004   98.753899
H   91.367371   56.701256   30.034151
H   33.408298   56.794380   99.200272
H   99.434364   15.024121   74.966240
H    8.283848   47.517921   97.421890
H   52.152348   67.064857   50.762947
H   29.328619   19.777580   62.636597
H   11.451775   84.620514   33.387840
H   78.761032    7.488582   13.912042
H   92.306564   11.571028   51.102226
H   61.069130   87.437302   66.899773
H   92.910889    1.732629   33.626137
H   75.856964   21.890505   78.465958
H   11.156640   10.970376   92.731934
H   20.003809   54.886433   88.826439
H   57.726952   77.682991   52.077808
H   27.243423   35.696362   85.753799
