100
TIME:    5.354, STEP:  5354
H   55.253090   31.032215   94.244278
H   52.610420   94.988342   15.691955
H   71.788483   59.092072   60.499409
H   82.375259   12.065224   46.692543
H   47.215759    1.904203   20.536022
H   44.997005   95.407707    8.970474
H   72.365913   22.864986    9.142854
H   99.072449   51.790249   16.606876
H   22.016396   71.528091   63.073120
H   28.528830   93.258873   17.345747
H    2.238992   81.672470   24.025452
H   51.495171   92.059166   11.825674
H    2.417141   37.823952   93.021416
H   89.983131   88.573341   64.683067
H   45.624062   91.786880   93.410004
H   86.250641   43.448685   88.612030
H   93.570198   36.096027   60.784088
H   15.559310   34.310925   13.928698
H   28.658798    2.958484   45.430759
H   48.269524   92.116249   80.857857
H   46.562767   23.209549   11.927925
H   75.673538   51.191498   63.335724
H   14.260165   51.078484   79.165695
H   21.593853    0.877657    9.438056
H   38.093658   61.561852   76.080360
H   22.139769   68.382416   86.951752
H    0.397051   19.917046    6.196945
H   80.786537    6.346306   43.748299
H   27.588890   34.848423    4.086381
H    6.289938   58.328239    9.016499
H   26.768291    2.159611   85.787498
H    3.812138    4.588669    3.617454
H   47.486240   76.758369   80.127556
H    4.320241   83.060631   46.195122
H   47.685837   54.198776   50.748489
H   38.051334    4.776623    2.593892
H   93.317444    8.459934   30.339458
H   42.700901   60.975826    0.259418
H   19.077511   64.762444   25.469679
H   58.905682   10.959404   59.276966
H   69.343765   39.891144   68.483620
H   50.433464   52.149170   54.331577
H   57.357975   95.606293   88.199013
H   37.472393    2.509475    4.222237
H   92.235939   20.651085   14.266646
H    9.012686   65.036179    4.912383
H   83.562790   16.006584   76.859367
H   56.525349   50.514435   99.853142
H   21.533676   89.031799   30.900238
H   38.167217   12.222654    9.199196
H   43.136143   52.749496    9.866735
H   65.326820   66.929108   22.581490
H   19.929478   53.053040   91.916954
H   52.703209   19.846672   68.073692
H   14.501419   27.803652   45.886585
H    0.264101    6.901834   10.364014
H   35.671982   35.059502   65.197395
H   27.385384   71.268379   75.648300
H   12.535902   64.988823    0.453188
H    5.710941   39.314701   11.330086
H   97.434631   29.586651   96.956596
H    8.893194   78.107803   53.104088
H   37.543346   41.936081   66.330597
H   10.688727   70.928650   81.779053
H   44.832497   33.228718   94.163383
H   72.441338   76.109917   62.753593
H   58.007172   33.464657   25.553825
H   10.528436   23.738558   22.154760
H   23.744307   65.082039   24.438728
H   38.857330   17.432449   90.459137
H   52.019310   31.114380   97.921822
H   32.505630   73.836060   48.617126
H   57.900665   53.474197   24.471138
H   12.347942   10.564766   85.037376
H   20.309572   36.273235    7.267214
H   52.232231   50.714661   35.673367
H   53.064014   62.498104   85.736519
H   83.520981    0.634922   10.120208
H   18.257511   37.792339   77.418755
H   36.956398   17.360565   59.669342
H   15.641096   84.671249   99.985512
H   43.043739   79.192352   39.078995
H   56.528419   96.657166   39.831852
H   18.496962   70.312424   74.411285
H   91.633324   13.988320   28.742043
H   28.068592    5.714652   13.581355
H   24.736288   14.073517   78.842865
H   42.136040   76.641663   40.065063
H   66.794052   96.070549   84.401985
H   92.972870   88.996994   15.610531
H   43.130424   62.530605   46.528484
H   74.440681   98.151688   35.542213
H   28.655062   88.166939   33.037617
H   64.710518   37.994091   87.811195
H   64.023933   70.151665   39.114475
H   36.140060   84.308380   90.907700
H   37.626671   74.935829   29.275833
H   26.517691   61.823792   70.357399
H   53.660828   59.929287   96.582680
H   71.767548   41.241459   81.973068
