100
TIME:    3.987, STEP:  3987
H   47.697418   56.393097   95.495804
H   90.364784   20.912806   29.498476
H   48.287628   60.744667   76.542076
H   82.145813   68.385735   21.621592
H   59.459854   92.333138   57.600433
H   66.198860   96.888680   73.592583
H   44.011250   30.558933    2.241542
H    6.515961   33.528019   42.121174
H   55.619865    2.959524   49.120136
H   65.886391   73.630775   63.818901
H   29.393997   26.667912   55.700817
H    3.666150   23.538126    9.130323
H   89.648483   20.488522   28.853840
H   57.667946   92.786812   60.653690
H   28.998684   13.892590   59.122463
H   41.216385   63.011467    2.084974
H    3.496252   45.679119   36.340691
H   86.337730    0.812678   61.320881
H    7.367253   45.613922   73.411911
H   85.101646   21.147833   87.786156
H   27.682480   59.299747   49.028061
H   44.617920   49.376785   79.748413
H   32.511833   62.196205   18.277252
H   48.606010   84.499481   10.963207
H   86.986603   69.971252   65.984718
H   28.374514    8.811185   15.469286
H   18.275003   76.743301   79.078468
H   96.130798   42.539383   98.559044
H   97.863831   10.824018   68.704659
H   53.872223   92.161156    0.344134
H   72.970207   79.577202   93.940193
H   17.498640   42.354134   30.167473
H   51.196957   76.774574   56.977402
H   46.562119    8.337997    3.785879
H   81.664764   57.533501   67.507507
H   19.217382   97.684906    6.924539
H   62.203285   58.523422   22.625174
H   99.203362   85.986748    3.793890
H   76.780975   94.548759   57.942238
H   87.662514   38.933685   51.723782
H   62.768494   92.988464   36.277691
H   73.292282   90.796463   90.114349
H   45.583202   87.408798   89.459007
H   24.761770   79.589661   70.561768
H   10.813311   74.583466   97.288635
H   26.649891   38.962727   99.356392
H   72.883102   41.664940   63.738998
H   56.452343   36.434769   15.270851
H   81.573654    2.247144   85.431274
H    9.496844   91.420341    4.809301
H   43.240437   84.724144   95.455109
H   98.894165   93.775284   12.322048
H   91.576286   45.126709   71.311745
H   84.363091   42.155121    7.752242
H   23.343002    7.999017   34.257824
H   98.554855    8.340094   56.899918
H   49.009434   74.503426   35.184410
H   29.175529    0.364334   10.858776
H    4.723791    7.228872    5.398552
H   95.918655   34.242329   50.210823
H   11.203386   93.158714    3.538738
H   57.408195   90.831650   14.954192
H   44.738094   35.217827   60.069908
H   16.819189   63.482796   18.892101
H   90.573128   42.409046   66.861031
H   56.417397   44.067177   81.926361
H   67.684006   86.203217   59.554790
H    4.956352   45.558426   56.804256
H   55.615158   63.305939   10.174025
H   11.163397   48.677849   93.337646
H   95.426399   24.124519   14.320843
H   45.220474   19.204575   48.531734
H   47.031952   21.093433   59.524292
H   42.442272   97.073799   66.260063
H   54.399479   34.322941    3.639218
H   19.911577   63.103493   27.655365
H   28.948370   80.980270   61.561207
H   19.296841   90.020378   34.627129
H   52.702599   41.807652   62.169746
H    3.995132   91.813118   77.437645
H   88.895218   70.529007   18.282610
H   40.474464   70.265701   53.387207
H   70.055946   73.808136    9.642010
H   24.449785   53.335396   99.266769
H   58.195648   99.494438   61.257477
H   59.534039   55.505249   18.652771
H   33.437447   13.465553   13.659130
H   20.133215   86.085503   54.279633
H   38.426132   72.182503   95.582283
H   13.833901   45.240616   66.740738
H   87.187042   88.718117   17.659952
H   73.294052   95.345268    9.496878
H   41.027855   47.147621   27.325357
H   32.586521   55.074776   95.641853
H   87.656914   92.597984    7.704518
H   23.231476   38.288399   61.515205
H   46.132812   96.486549    7.892780
H   21.501158   50.184601   92.238243
H   18.781731   54.036686   11.083260
H   86.859001   76.319130   13.659379
