100
TIME:    0.938, STEP:   938
H   53.889076   36.001869   98.287247
H   75.178047   55.603184   37.168941
H   95.880585   41.387127   12.326210
H   81.634048   94.003624   88.748283
H   86.769470   47.942360   40.271599
H   13.471008    0.192768   71.639519
H    3.810659   24.675589   63.805592
H   46.161346   69.750046   22.069672
H   30.570168   96.108414   41.043457
H   49.206490   29.852219   44.422112
H   13.004547    3.985082   49.396172
H   20.038815   70.707832   26.160830
H   83.595886    4.957003   31.899607
H    8.637541    2.185198   28.622272
H   91.910408   86.238678    5.682766
H   63.809296   29.692570   55.178207
H   48.652733   44.028427   58.757790
H   21.188782   49.085785   67.027634
H   59.870453   17.702776   12.780947
H   67.258583   85.865784   80.180290
H    8.614288   62.837463   31.785645
H   52.289417   45.337990   39.386715
H   73.220375   86.993523    5.512045
H   31.891190   47.931583   37.410828
H   96.036369   11.784046   43.483307
H   42.358006   99.661026    1.254799
H   81.194366    3.484642   18.579748
H   53.394630    0.221867   97.777908
H   31.567062   34.194340   12.832817
H   36.959728   67.624374   57.956783
H   53.000004    6.158375   35.186211
H   24.982916   26.596687   12.428688
H   36.429096   99.854240   82.299400
H   17.734856   87.760689   32.234001
H   57.456367   88.014442   81.846039
H   54.110565   58.169628   17.416807
H   69.764671   70.184425   82.376106
H   25.221985   41.786114   88.633705
H    8.550568   60.484459   52.224663
H   74.843727   24.370562   11.833578
H   71.138596   88.366768   64.443405
H   47.319084   53.957161   46.868885
H   19.320379   69.124847   69.224892
H   19.461641   28.490889   72.446053
H   75.290306   94.883011   36.375420
H   65.971672   80.837456   86.996666
H   45.984486   76.341324   35.638374
H   56.289509    5.041025   26.616026
H   92.450066   54.763229    7.056005
H   45.562649   45.026356   18.060326
H   43.473057   79.085533   63.306995
H   50.717583   76.700104   12.483223
H   28.336992   27.447571   48.392883
H   54.968487   91.899544   73.208084
H   66.086777   40.734989    8.365667
H   94.739883   11.546152   60.695068
H   55.715660   62.481392   45.199104
H   56.213074   88.304924   89.394119
H   64.253761   78.401093   39.472645
H   97.121185   99.884613   36.930626
H   18.870371   34.949821   41.261475
H   65.619690   19.214584   52.914635
H   37.856819   43.189308   69.207619
H    7.449598   46.896973    1.671530
H   69.554710   85.927727   82.915596
H   43.722420   95.642403    1.647693
H   12.310976   80.790985   12.348740
H   15.571895   71.182236   11.044425
H    3.650753   82.387634    1.401699
H   49.387154   95.321434   99.757965
H   92.245827   31.580030   50.897587
H   96.625137   20.395302   25.297178
H   45.832779   71.907906   37.697178
H    9.545390   90.021088   47.460472
H    7.397377   29.978361   72.504570
H   47.835232   67.690941   32.814465
H   52.119816   45.246696    7.631668
H   76.049271   89.387306   66.243881
H    6.512132   50.754734   28.147491
H   53.524277   57.870087   40.111572
H   29.237835   38.985699   36.050167
H   11.701607   50.353409    8.342442
H   77.146111   22.912905   19.239597
H   14.695141   92.427467   77.754128
H    6.656237   90.211212   56.823860
H   29.703304   43.509365    6.920809
H   29.801626   35.152687   68.270538
H   71.055115   30.195347   85.990822
H   75.148628   41.945396   20.525894
H   83.405167   70.687271   57.745831
H   62.409367   24.081484   53.270580
H   47.689457   66.052635   51.394661
H   45.467430   55.735001   91.480827
H   37.889244   70.130547   90.063164
H   40.375309   65.710266   37.639946
H   71.396530   58.690300   19.000252
H   88.148575   21.510115   83.243683
H   10.309169   24.224182   41.028152
H   64.027885   40.893642   66.478523
H   97.494400   54.611187    7.342921
