100
TIME:    2.381, STEP:  2381
H   56.304840    3.671552   96.966141
H   35.038445   33.838501   28.192678
H   20.682051   45.202362   95.386894
H   81.876251   34.553856    9.651844
H   73.844650   63.605167    1.146828
H   91.096565   98.628578   14.543976
H   28.182632   22.113747   76.650154
H   32.744392   94.589203   89.578270
H   95.098412   57.369965   50.212231
H    9.774580   50.570992    0.925384
H   78.780212   62.047215   10.399858
H   64.966751   43.037781   23.446619
H   91.807167   17.653786   88.476952
H   37.188057   97.736946   38.435574
H    9.461582   57.346619   36.319656
H    5.789130    3.478066   35.398209
H   32.638596   39.456337   90.137711
H   52.025597   78.912529   17.000103
H   82.349251   78.239868   88.803177
H   28.370522   55.249348   78.442207
H   22.984711   19.181011   92.619339
H   90.649139   47.244797   16.514099
H   53.954247   75.257698   64.227112
H   97.820786   65.238068   30.240135
H   44.425163   97.339508   54.129219
H   35.741467   56.660908   65.999809
H   56.763298   43.502232   47.214718
H   31.640348   67.576744   45.475605
H   62.943329   65.114906   44.620598
H   92.292046   31.910477   72.671349
H    9.764657   35.563122   21.003708
H   16.094795   86.727821   78.842979
H   38.071987   94.277428   12.296239
H   78.703896   55.518295   71.443420
H   21.586742   78.934723   69.713600
H   79.572983   71.525261   12.454938
H    8.168237   17.338659   96.078918
H   65.577980   15.375004   90.462364
H   44.570976   29.537603   13.575731
H   38.929882   89.281914   25.365934
H   72.525185   37.881145   98.439865
H   17.630493   18.717751   14.662916
H   31.749784   77.778091   73.454765
H   27.315825   52.677338   13.535895
H   50.120983   37.948383   59.859718
H   47.369389    8.330708   92.837898
H   60.332653   54.324799   48.312714
H   56.366573   19.897963   15.900673
H   34.628563   35.254810   49.496078
H   75.822685   66.988243   17.134838
H   43.362965   39.773659   78.521729
H   20.844660   42.800243   17.753185
H   58.271049   35.814575   64.586449
H   21.555515   68.361839   36.882660
H   51.209602   67.237167   20.609632
H   96.545395   10.029633   11.571945
H   47.196049   20.844536   82.440300
H   48.762543   52.031677   52.227005
H   78.060875   39.372341   28.692228
H    1.898313   10.798872   95.889290
H    9.895676   67.842720   28.754391
H   14.406708    5.781246   87.621567
H   35.734333   44.787254   70.212326
H    6.537907   54.746544   62.499844
H   26.827374   70.678375   17.298727
H   55.076607   23.906349   86.968651
H   96.535988   30.680696   82.016617
H   15.894016   53.709351   80.028168
H   75.571800   78.702858   10.899493
H   78.622131   67.901924   96.719421
H   46.425468   33.396873   33.588886
H   77.642334   72.504288   30.946993
H   51.746231    0.533939    0.695263
H   77.792259   98.704498   61.698647
H   76.968285   32.031666   81.893661
H   81.946999   60.173729   35.718655
H   83.134583   20.177309   33.159199
H   43.844036   95.032631   45.934483
H   75.689316   46.524982   44.243889
H   82.756569   79.280411   15.795789
H   57.476475   53.914196   22.295422
H   19.972145   59.777298   87.679420
H   68.448410   46.998993   56.678349
H   13.960929   15.906832   45.951782
H   36.395065   99.950302   16.941055
H   96.489990   96.511986    7.127069
H   26.176336   30.234833   37.078659
H   94.284561   14.665728   70.985329
H    5.094402   61.601814    8.720207
H   55.826794   11.313332    9.333684
H   21.462982    1.999475   83.744095
H   54.459988   74.575493   78.890633
H   38.053059   98.977097    3.115541
H   77.360847   57.659153   87.357079
H   15.424767   36.454346   70.799706
H   90.582397    1.708835   44.467300
H   73.609848    4.321322    0.255785
H   15.607354   36.510468   17.938473
H   95.288261   47.113850   45.604752
H   87.109451   17.545303   68.361359
