100
TIME:    3.391, STEP:  3391
H   88.003082   11.049320   96.041458
H    6.942919   88.599365   91.903305
H   38.042969   17.866081   83.535545
H   82.045776   92.940178   54.291920
H   64.798172   44.561108   73.760895
H   75.438606   97.534370   14.567816
H   75.247047   90.313820   55.633553
H   53.360382   81.966354   96.843025
H   70.270683   60.262573   86.635674
H   82.174171   65.073097   40.478539
H   84.832474    2.686926   13.111544
H   26.415382   93.664154   51.553719
H   27.561241   56.547195   88.091179
H   87.178749   94.623848   15.296177
H   21.748302   67.129532   87.770088
H   65.179703   15.139965   51.558937
H   51.423134    6.259862   82.084457
H   73.605797   29.796471   81.983582
H   98.084267   20.609316   42.012691
H    1.161736   33.804417   47.207664
H   63.049973   18.632294   65.202499
H   87.478821   48.585587   30.503281
H   40.469292   67.043434   35.330780
H    3.980870   77.351410   55.229282
H    8.303014   17.235672   61.583107
H   31.109606   26.569498   71.331902
H   69.669983    1.516191   67.255959
H   46.418819   14.720108   78.860924
H   84.904541   56.749924   96.878609
H   31.018501    6.912522   52.963165
H   49.513355   26.133337   41.093819
H   79.867073   58.819252   85.342216
H    9.214457   20.380482    3.285015
H   21.379215   62.957832   28.892891
H   96.479279    2.586423   31.216507
H   67.390144   50.866489    8.981812
H    5.040409   80.349594   75.662895
H   23.835976   96.890739   61.733639
H    1.935924    7.534010   15.699190
H   43.798969   94.728882    4.830660
H    3.501434   72.535522   22.236189
H   26.857414   64.050308   62.113190
H   40.449505   83.834763   46.408741
H   62.820724   69.604187   12.288302
H   62.510441   98.101166   46.288143
H   34.339069   27.594929   96.937325
H   68.226852    9.251481   58.014175
H   56.420513   30.296789   78.393806
H   64.149094   51.606178    9.204888
H   96.997917   82.353386   46.492786
H   43.285908   42.264633   89.170990
H   69.929016   49.080147   51.450008
H   79.217216   41.670898    5.924831
H   98.168144   51.881409   81.452362
H   70.796738   55.763107   29.189047
H   97.809128    8.967596   77.189163
H   11.227275   91.700630   78.499718
H   73.555412   56.649612   26.211742
H   57.716728   82.046448   51.154888
H   35.247620   88.431259   67.162483
H   73.607460   20.875584   50.006054
H   78.561394   96.379135   41.923111
H    4.274838   75.887260    0.939420
H   75.894096   60.240700   35.075298
H   66.919014   90.010353   11.358045
H   93.030800   73.696205   46.686188
H   15.502182   65.595673   30.780523
H   46.126274   11.471854   28.312010
H   25.908829    6.130684   47.555714
H   99.088440   18.699701   94.592651
H   14.352371   64.676170   21.471188
H   94.363998   38.984543    4.894442
H   85.891632   50.572407   74.803947
H   55.565258   34.789993    1.673034
H   25.665731   33.472630   58.458897
H    5.820788   24.903566   67.757080
H   74.836372   32.637024   51.020985
H   91.295670   28.990973    1.710940
H   24.123953   43.558292   55.517311
H   33.224403   24.272182   28.783432
H   77.236404   64.363113   82.661163
H   95.754364   66.373367    3.223765
H   32.347416   63.859039   52.875858
H   83.445221    2.333889   53.700661
H   87.215363   36.775745   19.032875
H   73.249634   33.610870   77.264481
H   93.631935   56.799599   85.239212
H   10.541067   33.802567   60.477356
H   26.056877    5.367161    0.456948
H   66.529510   69.762161   45.436897
H   62.796295   56.534664    5.073525
H   29.192648   50.527496   98.139442
H    2.824312   29.263800   81.235680
H   74.981300   18.921455   55.455383
H   97.960686   45.985004   94.009239
H   74.004272   61.824287   92.299202
H   93.441040   62.283123   42.170296
H   19.313993   45.110016    1.777483
H   47.173943   51.467564   61.006081
H   49.838100   91.615639   71.074615
