100
TIME:    9.062, STEP:  9062
H    4.496337   90.993172   90.849503
H   50.205582   95.919632   49.493717
H   35.538349   25.860149   16.966301
H   82.997635   59.296257   43.443863
H   13.995874   99.116516   19.997601
H   87.491943   91.390556   76.186646
H   78.029869   73.248405   99.113365
H    7.630966   72.579391   76.151466
H   30.866615   15.017808   29.666193
H   27.244123   46.501896   62.534676
H   57.329865   30.870224   66.850853
H    9.968552   77.921913   47.885689
H   65.895981   13.477802   24.551128
H    6.385842   77.144264   46.862942
H   90.673042   60.570320   15.109840
H   37.160522   19.133446   80.815491
H   95.394783   81.351372   98.337959
H   94.850235   53.881981   85.392654
H   86.410065   58.517223   40.782444
H   48.368061   13.372305   33.315666
H   26.524788   54.067261   11.286350
H   31.163111   56.113922   47.565262
H   64.751442   20.926760   73.075760
H   77.067932   45.236053   34.050983
H    5.475970   67.499466    3.463252
H    4.878056   58.955734   38.107395
H   80.652977   65.782425   79.771774
H   67.915527   79.423233   66.316368
H    8.215257   71.267570   28.805763
H   48.469933   66.554916    3.791992
H   72.703804   34.663006   92.422501
H   37.937428    2.140477   60.349342
H    8.671371    5.463731   14.173482
H   60.993271   43.244415   89.984383
H   55.427620   73.549446   76.392792
H   60.381580   95.206696   90.937202
H   48.962349   72.664803   22.515341
H   89.443016   93.113045   61.920059
H   62.564243   83.972374   66.137283
H    9.654696   63.830223   51.014503
H   15.928038   67.119232   55.841274
H   36.517975   77.139801   42.591755
H   89.274750   17.848576   56.029583
H    0.706296   64.754799   66.767525
H   70.593658   74.361778   31.571672
H   61.151184   35.754589   19.976698
H   12.539979   17.660761   12.455318
H   56.740719   88.705658   29.282352
H   29.921524   81.935280   82.987610
H   15.995390   68.665215   49.918316
H   42.879353   94.765495   48.956329
H   45.542583   22.852310   79.172066
H   96.837349   74.553284   76.566605
H   66.832764   59.353493   31.696384
H   19.265022   52.755798   77.417664
H    4.882469    3.001379   84.134918
H   70.742294   28.066505   17.859198
H   51.280457   21.093195   80.138329
H    4.979250   21.670671   15.795362
H   61.018940   24.323421    5.865746
H   31.338987   57.144802    7.852045
H   77.289818   43.594254   85.328453
H   89.279877   88.908104   12.061920
H   65.312500   91.127563   81.106827
H   92.009109   37.076984   39.473606
H   44.655830   91.774834   82.000526
H   60.507339   61.656521    4.574877
H   54.391464   35.803474   99.418610
H    8.549809   98.648819   91.879456
H   14.069503    3.806340   82.623260
H   34.266956   78.821083   53.450264
H   27.033834   50.706444   20.287113
H   16.132614   70.065605   29.399792
H   30.719326   75.885170   64.720314
H   98.997467   41.658543   88.388657
H   39.889641   88.362175   86.171585
H   89.805496   41.461636   51.460205
H   57.722294   58.184837   14.909514
H   96.070229   26.900768   18.788584
H   55.116173   15.369028   40.221764
H   88.219154   23.032907   21.606804
H   21.301579    3.242147   28.877367
H   91.065392   58.666904   92.961693
H   73.599388   87.613991   35.743504
H   11.087143   82.037582   69.294403
H   42.730541   41.916489   71.075958
H   72.385338   44.470940   55.654335
H    1.770795   79.924843    1.619144
H   43.747807   89.614983   54.075325
H   65.137314   36.441437   48.160393
H   94.877037   62.750347   24.834984
H   48.795132   77.028564    6.196459
H   66.345184   99.418633   19.782953
H   23.072729   62.953968   37.834270
H   99.912613   38.011135   24.320620
H   42.405655   37.882874   99.384613
H   43.303123   87.728477   16.024170
H   20.785555   34.848400   96.959068
H   77.020317   75.934105   85.999870
H    2.088082   46.087711   24.768604
