100
TIME:    6.242, STEP:  6242
H   95.201736   49.598930   93.431290
H   28.085815   43.109341   71.684608
H   87.059113   22.978207   50.072834
H   82.524307   75.479645   98.016846
H   39.262024   73.081253   96.459839
H   31.223629   94.445671   96.912193
H   25.827442   82.827522   78.585609
H   29.277405   28.614330   35.074245
H    0.187600   86.150467    7.174638
H    4.268686    6.009671   52.117283
H   19.639389   17.402700   38.488525
H   17.600334   36.569675   48.616386
H   45.751877   84.124046    4.785088
H   46.014015   85.836281   32.259151
H   56.421333   12.466614   50.724072
H   50.546906   65.780861   14.900332
H   22.162727   94.831215   41.622231
H   34.549320   91.103485   83.145058
H   42.487194   40.213554   92.215546
H   24.347343   73.254921   41.316978
H   93.867599   34.806660   87.824516
H   60.806961   52.370331   87.714340
H    2.402735   43.856438   53.759811
H   39.086140   11.500704   43.488415
H    6.335139   91.137589   82.638466
H   18.091764   42.130798    3.448105
H   23.823895   83.004959   23.817610
H    5.860425   47.795158   73.101852
H   46.897362   15.415218   62.109344
H   40.338520   36.350456   79.609879
H   61.719505   81.787529   15.531761
H   59.880924   80.051086   21.410820
H   10.034739   11.788111   60.125610
H   41.841621    1.680748    8.786215
H   25.610138   87.063087    4.818303
H   15.244152   74.328865   99.801338
H   78.487617   75.939575    0.310641
H    6.000340   44.722836   62.920811
H   81.595886   45.413322   39.415810
H   75.266235   27.827904   29.141638
H    8.655495   70.359291   89.404518
H   74.172180   66.081146   98.625481
H   65.005951    0.931702   52.339630
H   80.770554   17.414572   91.045616
H   15.208851   85.614548   90.254745
H   97.552696   81.973434    8.520018
H   90.500290   64.299210   85.382195
H   56.572773   59.660553   54.797504
H   47.488327   15.487930   95.477371
H   56.793392   25.739096   47.091621
H   43.072987   67.018677   19.227371
H    8.482365   84.528595   64.287697
H   38.350437   58.201965   40.343288
H   32.141380    5.356400    7.259112
H   43.797935    5.623519   53.440601
H    1.370163    5.967745   80.134384
H   91.968010    9.436387   49.653633
H   61.263336   87.407417   52.776230
H   82.569946    2.508570   32.284111
H   47.110489    7.568194   86.073265
H   53.450977   88.289932   27.720646
H   77.377144   69.842422   12.922273
H   97.829399   81.340004    5.437775
H   71.667587   75.765930   57.672169
H   80.079224   62.307133   76.859154
H   17.890701   31.964653   15.259572
H   86.760849   64.161774   68.425919
H   49.188179   74.523781   64.606293
H   68.004128    1.276024   68.746521
H   56.844696   62.098274   88.589264
H   23.821182   70.695358   87.271675
H   59.284756   44.365234   13.631427
H    0.000566    9.552505    1.700734
H   92.799767   54.362087   32.274437
H   63.121105   37.540142   74.583878
H   73.224678    7.625982   75.921326
H   33.690029   85.539696    1.444306
H   25.240841   42.571465   59.163521
H   60.837772   35.184002   87.323662
H   93.411911   68.988319   83.167351
H   33.018684   93.858017   53.058537
H    9.692190   84.951141   64.797707
H   12.694673   11.506774   24.399765
H   79.588737   46.300804   93.307243
H   48.395897   58.445679   42.660431
H    7.628727   38.333076   75.246582
H   84.043785   49.508537   21.186132
H   56.417534    5.582174   30.857971
H   85.221786   46.627312   77.139290
H   14.461749   52.464581   47.352676
H   79.471001   10.482307   65.281418
H   40.143688   64.937363   52.459145
H   85.577789   14.809567    1.708019
H   50.532017   91.868111   47.687439
H   48.672005   90.608932   59.520481
H    9.485244   49.241486   45.041611
H   67.141747   25.895456   78.206085
H   26.228823   95.313370   53.571983
H   11.358523   63.757107   22.203995
H   26.925959   18.455448   96.428337
