200
TIME:    0.361, STEP:   361
H   13.189283   62.073421   17.408602
H   29.042763   34.644627   94.809296
H   15.601568   74.434303   51.308098
H   21.921244   78.388039   41.335575
H   13.925455   86.795975   51.918812
H   85.682251   49.530865   61.967846
H    5.112296   55.218277   51.993412
H    5.600169   94.111450   20.777344
H   92.342438   85.692223   44.767624
H    6.601776   73.203972   91.299736
H   16.411222   97.179024   96.785385
H   31.278152   45.252506   18.507687
H   14.143970   91.023613   56.332481
H   98.684372   53.717442   48.096462
H   13.779947   72.876053   42.680874
H   25.773468   20.980858   51.712780
H   89.899597   13.385527    9.557310
H   33.688854   88.983849   41.366180
H   69.051308   25.321306   44.265064
H   90.441208   78.042992   32.780163
H   59.537201   82.798470   20.296917
H   87.335258   53.439384   65.911827
H   91.381821   61.661690   46.232880
H   11.171145   89.162354   91.206665
H    8.505749   17.570467   41.092747
H   18.560930   67.706139    2.960203
H    1.238889   61.224659   53.946899
H   97.287140   75.120941    1.049654
H   16.164879   52.851875   37.629841
H   87.581566   24.005779   94.440308
H   13.203517   56.504459   16.342749
H   29.725708   66.342270   96.582153
H   24.199661   11.589187   74.657127
H   92.421898   63.709930   40.405251
H   42.181782   84.801193   33.298702
H   29.108761   47.163097   80.863983
H   89.737381   71.817390   86.863319
H   26.929815   47.885277    9.727049
H   48.592018   42.067780   47.121250
H   88.922340   39.190907   58.969818
H   80.540314   99.571495    5.540532
H   19.361986   40.569592   36.243290
H   74.523209   85.002304   54.821285
H   37.011703   69.110710   23.075863
H   32.911182   79.986855   48.730446
H   39.357029   10.689494   44.003838
H   82.254349   20.284130   98.832161
H   87.170029   65.548759   43.297745
H   91.759850   24.160381   61.253571
H   57.787331   18.347551    0.593230
H   75.329834   68.964600   23.073395
H   16.512640   37.780621   66.143181
H   55.439663   90.959473    9.511210
H   20.605745   84.737152   83.495010
H   72.077225   73.693932   86.860092
H    3.754520   69.369186   82.610413
H    5.085166   17.203346   48.356632
H   68.730637   61.392254    3.119540
H   25.627941   76.814896   10.053007
H   40.304741   95.309731   64.757423
H   50.027637   13.015663   38.701275
H   92.110725   16.711523   49.993492
H   74.780830   27.713070   80.802719
H   27.057753   65.324966    6.369065
H   73.293465   77.882919   22.877491
H   33.993290   21.262070   35.038254
H   81.655373   20.609690   88.335030
H   96.663826   91.725029   89.667145
H   20.826473    7.488389   60.448288
H   44.540443   43.738937   50.976131
H   58.412083   78.684929   76.517929
H   28.739820   20.641327   43.917831
H   81.334122   27.754971   95.444023
H   11.807358    6.305040   64.094948
H   80.618393    2.830288   61.923302
H   56.372177   14.804728   62.086788
H   94.916153   34.454739   70.434044
H   22.073545    8.173283   43.829948
H   12.450485   35.084297   32.258533
H   66.452858   89.992119   88.523285
H   48.503620   28.057026   99.337418
H   31.956842   66.414368   84.116600
H   10.527634   14.993569   86.739410
H   20.728264   65.816246   97.795258
H   34.599384    0.603364   54.353130
H   28.076200   81.540726   25.263988
H   41.278301    3.036246    2.048720
H   74.325249   14.040904   16.006044
H   69.389091   72.351532   77.606529
H   22.838078   91.470703   53.534313
H   36.170536   35.937347   80.216286
H   83.212585   89.597092    1.008055
H   53.007729   15.497442   92.283684
H   54.602013   90.086502   72.427109
H   28.190935   55.289444   72.979294
H   64.261177   30.414608   23.372498
H   80.946968   10.094042    3.540390
H    3.568329   30.318949   49.739208
H   34.276131   68.565926   53.310055
H   69.308304   99.893707   27.279947
H   15.264753   83.771912   74.637520
H   95.071770   78.487190   65.197159
H   25.687613   32.748032   32.193810
H   27.690174   68.162888   94.967400
H   25.178341   25.882595   29.010490
H   92.213364   20.848755   38.225819
H   71.390182   31.599218   55.696106
H   64.038521   38.920162   14.062768
H   75.871597   38.562290    4.983555
H    8.253684   26.373320    6.129469
H   48.786526   95.015305    0.880983
H   90.852531   66.388123   91.889435
H   54.992474   81.678780   91.303452
H   62.814293   16.788736   71.833710
H   59.812370   87.007156   22.530062
H    9.100412    2.257482   84.393013
H   27.600048   10.146511   85.590683
H   40.157215   32.952225   31.559837
H   23.457584   62.256466   77.559448
H   73.975830   49.089840   53.856533
H   41.817451   22.563503   83.554871
H   13.068184   24.613628   51.747395
H   35.153572   16.719357   27.618614
H    2.294553   62.964405   12.566440
H   73.295753    5.956182   88.811249
H   52.155346   65.663101   23.195107
H   92.378990   49.754898   66.381744
H   72.781982   88.518974   36.024509
H   93.956772   48.103752   82.132797
H   73.610008   23.575834   68.563019
H   53.493378   80.865326    8.035435
H   77.055603   87.251480   12.180463
H   92.042641   88.481705   98.275230
H   94.987434   16.105345   51.196606
H   10.403605   99.182266   50.856712
H   59.135338    1.471558   81.898987
H   69.093040   86.872856   61.362259
H   92.250435   60.442932   81.286514
H   49.475967   46.025780   71.521469
H   43.513489    3.286621   92.095352
H   56.608021   59.510357   18.818558
H   51.667969   44.687298   49.067596
H   51.115780   58.988106   95.302971
H   52.168602   22.147631   80.129524
H   45.989506   65.754112   53.025196
H   50.373592   64.060669   24.051052
H   47.593040   96.247902   46.415512
H   39.348465   68.914612   68.130760
H   68.420013   59.740376   96.741585
H   13.319045   89.995834   85.468849
H   71.955238   63.364895   50.430733
H   38.880886    3.761698   44.360462
H   81.796852   27.314198   99.216805
H   13.108514    3.920120   72.962418
H   18.410645   57.074547   62.942478
H   67.094101   43.828930   57.783588
H   60.577831   64.512123   82.188522
H   47.766369   34.718498   12.558916
H    6.843889    1.278408   98.117645
H   62.323097   52.006775   82.884552
H   55.144512   79.493576   80.198685
H   37.923000   22.429247   34.495731
H   70.427803   29.294447   37.181740
H   15.716102   23.734276   66.021729
H   57.795624   26.194101   11.013455
H   13.998414   60.589272   61.640381
H   72.816269   95.609871   53.504425
H   23.737915   36.437809   53.016224
H   95.717102   27.776714   36.571217
H   31.994816    9.546597   89.040771
H   77.053406    7.072790   35.965919
H   41.982887   60.952869   57.829685
H   40.010838   72.255020   87.019424
H   69.736092   71.643806   77.046753
H   65.813995   94.126312   93.542007
H    4.643184   48.314445   23.402832
H   34.174713   56.701015   91.969635
H    2.802393    9.316254   66.427414
H   72.507149   18.566706   67.719643
H   80.544647   55.753059   88.091919
H   79.208702   89.525482   38.905979
H   21.668262   30.253750   74.033470
H   60.064491   90.040207    8.464860
H   54.115788   25.444351   81.641747
H   87.087715   83.086235   77.898331
H    1.793528   37.244781   84.559792
H   35.565277    2.451929    1.946183
H   84.607933   72.349922   29.760374
H    3.114305   61.712990   67.926300
H   51.813915   57.615101   67.231766
H   53.600616   27.021076   78.437386
H   46.660984   88.217484   23.083178
H    6.788184   20.402658   60.577991
H   32.989536   68.360161   35.751801
H   80.742249   48.850716   21.420481
H   75.623550   10.680356   27.908613
H   10.265580   88.858772    7.550824
H   25.392956   95.001358   43.554264
H   10.299747   11.950462   72.605522
H    6.745723   30.893400   96.067726
