100
TIME:    0.943, STEP:   943
H   53.550941   35.543343   98.282669
H   75.038963   55.874294   37.484341
H   95.966492   41.746853   12.267502
H   81.634888   93.797630   88.474236
H   86.724686   48.343132   40.136024
H   13.393475    0.187326   72.134666
H    3.548614   25.013227   64.196602
H   45.768356   70.182632   21.610573
H   30.447258   95.627686   40.728706
H   49.069847   29.923992   44.617920
H   12.539459    4.186264   48.914566
H   19.847965   70.958458   25.804937
H   83.277817    4.654488   31.402647
H    8.389977    2.169782   29.002789
H   91.971214   85.792053    5.442411
H   63.608261   29.255215   54.763168
H   48.250740   44.359085   59.213036
H   21.295631   48.842636   66.854294
H   59.948311   17.912546   13.044352
H   67.123238   85.760956   80.521400
H    8.317581   62.339684   31.649937
H   52.768848   45.344589   38.960957
H   73.153618   86.952858    5.368984
H   31.426636   47.991550   37.039467
H   95.857536   11.387508   43.520195
H   42.335079   99.512024    0.786151
H   80.763229    3.276791   18.678968
H   52.972763    0.455256   97.943161
H   31.675781   34.647984   12.596478
H   37.151455   67.500626   58.354275
H   53.196690    6.606769   34.790550
H   25.298620   26.458557   11.965813
H   36.781307   99.488411   82.749840
H   17.946114   87.302467   32.023354
H   57.332085   87.636482   82.150528
H   54.545288   58.562389   17.399603
H   70.244255   70.001320   82.770088
H   25.015343   41.694599   88.986565
H    8.325777   60.377724   51.745422
H   74.372765   23.902479   12.226969
H   70.796875   88.538353   64.561203
H   46.869713   54.181580   47.103794
H   19.363447   69.154831   69.586067
H   19.142370   28.574678   72.934944
H   74.856575   94.685715   36.803314
H   65.907814   80.931450   87.016273
H   46.037281   76.611023   35.681099
H   56.289776    5.092504   26.925398
H   92.596245   54.349144    6.856544
H   45.667515   45.102459   17.710632
H   43.472675   78.602821   63.359715
H   50.960579   76.236160   12.154968
H   28.440714   27.476562   48.102470
H   54.852711   91.817986   73.428726
H   65.688751   41.173336    8.408096
H   94.746140   11.540897   60.524857
H   56.032623   62.337120   45.674644
H   55.840759   87.832741   89.265335
H   64.648125   78.612350   39.088772
H   96.791214    0.268928   36.788414
H   19.185789   34.717316   40.871651
H   65.442230   19.168045   52.688385
H   38.195984   42.848351   68.864601
H    7.792945   46.924171    1.535765
H   69.753151   85.528404   83.381218
H   43.415260   95.393837    1.943323
H   11.909803   80.963867   12.590153
H   15.226502   71.468185   11.283454
H    3.899960   82.028366    1.088101
H   49.488434   95.572899   99.747437
H   92.087059   31.239817   50.837620
H   96.212845   20.229362   25.663256
H   45.506775   71.660561   37.568966
H    9.435346   89.704697   47.163307
H    7.638443   29.985476   72.883598
H   47.953449   68.011375   32.478046
H   52.573803   44.813347    7.720140
H   76.284180   89.060387   66.519989
H    6.751805   50.740086   28.203243
H   53.279068   57.597755   39.680817
H   29.335682   39.037426   36.349010
H   12.076763   50.386063    7.924322
H   77.462502   22.996351   19.715824
H   15.039103   92.855324   77.297432
H    6.412768   89.898483   56.339165
H   29.588215   43.693043    7.268032
H   30.135565   34.789146   68.508957
H   71.135605   29.795052   85.938866
H   75.252388   41.667000   20.484982
H   82.963120   70.481506   57.924587
H   62.613987   24.351469   53.376171
H   48.059406   66.428688   51.489914
H   45.788246   55.884804   91.867638
H   38.372528   70.433815   90.400307
H   40.288868   65.262421   37.754845
H   71.809509   58.492851   18.741997
H   87.751694   21.797056   82.956131
H   10.327527   24.266754   40.948158
H   63.789696   40.915195   66.059669
H   97.804916   54.482746    6.861340
