100
TIME:    3.679, STEP:  3679
H   68.526520   84.638336   95.777786
H   98.931435    4.213501   10.070017
H   42.993408   38.585548   80.156151
H   82.094116   81.074944   38.504566
H   62.218582   67.645576   65.951813
H   70.973763   97.222359   43.089874
H   60.152393    9.760555   78.155525
H   30.724152    6.882841   70.401131
H   63.191093   32.572632   68.508232
H   74.303566   69.208351   51.757103
H   58.043411   14.274866   85.369408
H   15.422462    8.099890   31.053282
H    9.241742   39.122879   59.465553
H   72.918495   93.736153   37.213902
H   25.251842   41.403946   73.927315
H   53.600113   89.950188   27.652487
H   28.263954   25.308239    8.302237
H   79.758141   15.791091   71.999207
H    2.570321   32.692078   57.184811
H   93.401329   27.688650   66.816063
H   45.959641   89.960999   57.386490
H   15.089661   48.967911    5.977425
H   36.624077   64.701149   27.090378
H   77.222527   80.805511   33.838902
H   98.002716   94.395630   63.710060
H   29.787951   17.988077   44.337898
H   44.834789   89.545303   72.968849
H   22.118811   28.162979   88.379478
H   91.166748   82.879807   83.264351
H   42.061859   99.784081   75.858673
H   60.849049   51.958050   18.308174
H   98.051643   50.862953   58.680595
H   29.500895   99.309669   29.230330
H   33.548630   36.564278   16.760689
H   89.320587   80.815849   48.752884
H   92.434578   73.490814    7.987554
H   32.663277   69.802719   98.356255
H   11.933200   91.621696   82.058098
H   89.780365    1.259718   87.790077
H   16.673103   67.768433   27.489962
H   83.818481   82.418823   29.021345
H    0.973564   76.974625   75.643951
H   42.930218   85.561813   67.210594
H   44.429611   74.429382   40.447029
H   37.529728   86.736908   70.932678
H   30.623493   33.088093   98.106270
H   70.476852   24.914688   60.780533
H   56.435894   33.262466   96.213631
H   72.569016   27.754860   97.716309
H    3.037097   86.734734   26.350452
H   43.263935   14.459740   92.207611
H   83.925598   22.355202   32.542538
H   85.189384   43.340820   89.198830
H   91.497246   47.181458   94.161346
H   47.866074   81.004578   31.637899
H   98.169479    8.664373   67.384964
H   29.484499   83.390572    5.890933
H   52.110100   29.451756   18.792675
H   80.431450   94.214905   29.043953
H   16.243469   10.567556   58.971077
H   91.774452    7.482501   27.552197
H   68.339714   93.698471   28.891129
H   23.827208   56.234917   81.190392
H   95.669487   61.807350   27.255230
H   78.349190   67.009377   38.178715
H   75.338417   59.378822   63.714996
H   92.395065   75.553680   44.684917
H   26.232231   27.943655   42.080074
H   40.263565   85.436859   29.491993
H    4.923361   33.185265   93.986206
H    5.206802   45.080956   18.015987
H   70.615952   29.426437   25.980503
H   67.113800   36.327534   67.421135
H   49.223949   16.564606   84.560722
H   39.550755   33.883518   80.290932
H   12.629653   43.362373   48.378971
H    0.983878    7.674961   56.114246
H    4.826441   10.159307   17.616541
H   37.933769   42.712345   58.731911
H   19.100380    8.587002    3.972131
H   82.870193   67.342606   99.874542
H   17.363655   68.254227   79.141602
H   50.569340   68.666656   80.306519
H    3.259981   26.979214   27.397194
H   73.192413   18.760365   91.114716
H   66.622681   44.190704   97.263992
H   12.866827   35.859657   98.972122
H   15.176199   10.744587   57.482483
H   32.034531   89.331734   98.101326
H   41.065617   57.913376   55.731087
H   74.582428   72.085854   11.155557
H   50.503784   72.185112    3.627740
H   21.285023   37.905647    3.507190
H    2.816441   36.391090   74.873848
H   92.981682   20.186909    0.627349
H   97.791870   50.451241   77.423714
H   70.580688   78.810951   25.606882
H   20.370878   47.562164   97.168236
H   33.454216   52.709019   36.882301
H   67.726494   84.224037   43.330299
