100
TIME:    0.629, STEP:   629
H   74.785805   64.338814   98.570145
H   83.773430   38.848553   17.677275
H   90.571533   19.156746   15.954376
H   81.582184    6.734652    5.684970
H   89.537155   23.174644   48.650093
H   18.262592    0.529060   41.037624
H   20.005020    3.809794   39.641392
H   70.448135   43.018040   50.441978
H   38.165977   25.817719   60.495049
H   57.650993   25.416615   32.321152
H   41.746979   91.551849   79.160591
H   31.833302   55.219170   48.155830
H    3.252325   23.652191   62.610542
H   23.937321    3.137916    5.106381
H   88.152580   13.839267   20.536497
H   76.233231   56.721111   80.827621
H   73.495888   23.593765   30.623648
H   14.585599   64.112381   77.740036
H   55.058830    4.739053   96.501907
H   75.622932   92.344147   59.099678
H   26.950790   93.597992   40.171242
H   22.660572   44.930145   65.698433
H   77.345970   89.506599   14.353195
H   60.600616   44.225620   60.360924
H    7.087715   36.290081   41.203506
H   43.774853    8.867843   30.217409
H    7.839003   16.329865   12.447935
H   79.467430   85.798782   87.565292
H   24.848236    6.160032   27.438602
H   25.111704   75.272049   33.391811
H   40.844822   78.448326   59.638023
H    5.472686   35.133133   41.034386
H   14.663359   22.461428   54.462242
H    4.678606   16.078461   45.252022
H   65.137047   11.372670   63.028732
H   27.244480   33.896984   18.480032
H   40.128292   81.500343   58.028027
H   37.992470   47.441715   66.826988
H   22.442352   67.080696   81.840302
H    3.949032   53.298923   87.522636
H   92.256927   77.762810   57.161282
H   75.090233   40.088089   32.351505
H   16.658781   67.271866   46.906052
H   39.193024   23.312677   42.232552
H    2.094779    7.074925    9.932516
H   69.918098   75.028618   85.784920
H   42.721729   59.673306   32.997993
H   56.273006    1.859506    7.496848
H   83.416191   80.355209   19.382532
H   39.081928   40.323177   39.671371
H   43.496632    8.917459   60.048954
H   35.700417    5.372085   32.769363
H   21.926996   25.655884   66.340096
H   62.123447   96.939842   59.572407
H   90.684753   13.645952    5.743557
H   94.353256   11.870895   71.214157
H   36.127335   71.397392   15.810719
H   79.222107   17.485786   97.352982
H   39.884438   65.345352   63.195995
H   17.511757   76.135330   45.719322
H   99.378036   49.318680   65.352722
H   76.586700   22.090714   66.896378
H   16.897289   64.260490   90.406105
H   86.231758   45.216087   10.061811
H   57.289795   10.606525   54.139351
H   62.704872   11.003620   83.377251
H   37.103203   70.106873   97.429733
H   36.916557   53.510544   96.272438
H   88.251213    4.590385   20.782139
H   43.128036   79.780907    0.408072
H    2.057874   52.606396   54.603550
H   22.103418   30.650352    2.673533
H   65.979828   87.193825   45.620678
H   16.346169    9.574800   65.825264
H   92.498825   29.538691   49.080616
H   40.529392   47.886169   53.605106
H   24.063744   72.027702    2.164125
H   61.531891    9.591583   49.178371
H   91.701515   51.660007   24.702030
H   68.678177   74.698662   66.732269
H   23.190891   35.788952   17.582565
H   88.517509   48.335403   34.181908
H   57.593922   17.755911   89.809082
H   93.438751   65.985939    5.977913
H   21.702532    9.538764   86.778038
H   36.815830   32.158085   85.462837
H    9.164221   57.619499   53.536266
H   66.080826   54.934685   89.201714
H   68.736275   59.150307   23.054295
H   10.724125   83.403534   46.698666
H   49.763828    7.396409   46.745068
H   24.826586   42.812569   45.508026
H   25.641376   46.477165   67.575951
H    8.022453   51.386971   69.227730
H   45.717365   93.387115   30.539452
H   45.874420   70.892632   34.960411
H   12.675524    3.777531    1.014417
H    9.174630   21.593231   45.971794
H   78.748009   39.561665   92.363686
H   78.304489   62.548832   37.104599
