100
TIME:    4.999, STEP:  4999
H   79.260658   63.587563   94.569290
H   62.414955   75.753036   93.308411
H   65.683670   33.551529   64.667259
H   82.315674   26.692127   66.152351
H   50.395462   73.449402   30.160446
H   50.503254   95.792305   73.814476
H   90.972862   98.893097   81.381317
H   26.974754   21.079304   49.202892
H   30.742973    5.659889   85.417824
H   38.229958   88.161598    3.443454
H   35.260223   67.388184   58.219761
H   65.045265   74.264748   37.094292
H   25.070480   59.291008   28.296143
H    7.560557   89.667549   37.666496
H   41.306816   23.496489   10.474264
H    0.524142   74.498184   18.080353
H   22.117409   12.616506   28.467039
H    7.968242   51.582615   26.234472
H   23.129528   88.067032   26.729013
H   57.833008   99.656532   56.687782
H   67.628975   58.551918   21.563183
H   41.639343   50.720230   93.567276
H   19.000175   53.965675   89.322327
H   54.579456   96.630829   35.803680
H   50.790802   89.713562   73.458595
H   23.758059   78.874893   20.335032
H   31.009153   34.674198   99.152931
H   10.741097   89.776138   32.012650
H   19.869850    2.640674   20.866570
H   92.677704   67.114403   80.794960
H   12.796674   70.324799   13.873970
H   81.397194   14.396472   36.481560
H   22.479774    2.732149   48.146355
H   89.320724   15.594094   61.151100
H   56.509918   81.033951   29.132469
H    7.192504   76.971657    3.710440
H   59.267372   21.461777    2.367062
H   57.372494   67.471916   75.206413
H   34.063282   72.497734   59.871964
H   92.343605   44.193855   31.344908
H   93.605927   27.711309   60.119976
H   82.338829   36.215446   37.655743
H   54.300152   93.477463   62.555702
H   60.139286   96.550842   69.511154
H   23.029829   34.656403   83.888206
H   13.593412   58.265095    3.469311
H   80.789352   96.699852   73.452156
H   56.506390   46.858047   77.887733
H   11.157661   18.432941   45.062538
H   30.721729    6.819326   34.027420
H   43.163227   87.022034    6.124354
H   48.074089   99.869095   45.887573
H   12.565558   50.994629   12.534410
H   60.923309   25.640015   52.408104
H   42.767487   96.692390   42.866680
H   99.821091    7.275260   22.449051
H   13.167510   45.302803   31.434044
H   53.819473    4.793535   84.791977
H   84.537209   49.989334   27.706711
H   29.136494   12.027219   21.427132
H   75.041290   46.094761   24.634781
H   21.491480   81.412094   69.166946
H   13.442025   66.160324   90.674011
H   86.312111   68.994827   91.415665
H   30.740629   61.583324   61.104221
H   94.249657   93.758080   41.763222
H   86.489075   21.191544    8.413494
H   35.050758    3.434847    5.183707
H    6.050445   90.590080   46.704773
H   31.666372   99.576660   91.206665
H   63.291817   55.268204    2.180044
H   61.775688   85.617752   22.624763
H   81.046951   71.034065   33.574188
H   20.161777   33.032528    6.130368
H    3.194028   35.766758   80.355927
H   43.838791   27.961340   59.559055
H   20.831400   93.266060   79.458366
H   66.842438   23.847649   90.515404
H    1.234517   38.835087   73.459023
H   54.364807   36.697170   90.252991
H    8.694637   80.998611   78.767632
H   16.405937   76.874832   68.764183
H   34.072784   90.720276    6.022658
H   94.073318   39.934616    6.836185
H    8.919030   36.194717   63.155418
H   36.239941   92.675652   88.928833
H    1.026626   39.884903   61.915146
H   36.421600    5.062904   43.755981
H   59.427109   15.836132   87.305428
H   24.359594    3.601547    2.920700
H   28.602379   43.363010   39.031536
H   48.174274   71.451935   28.779249
H    5.899059   77.517372    5.584919
H   30.400108   16.458559   63.874058
H   70.161247    1.948841   30.956841
H    6.818528   98.327240    9.244143
H   65.805229   54.562984   49.692017
H   25.214933   58.801178   76.039696
H   70.572296   58.399021   26.318260
H   49.717220   50.349926   16.170729
