100
TIME:    3.645, STEP:  3645
H   70.825836   87.756317   95.808914
H   99.877205    2.370047    7.925367
H   42.408981   36.139412   80.555107
H   82.088409   82.475700   40.368351
H   62.523117   64.920326   66.873718
H   71.500862   97.259193   39.722610
H   61.934208    7.464668   75.496681
H   33.396484    3.941478   73.522743
H   64.026878   35.841583   70.648277
H   75.232735   68.720161   50.425606
H   61.206009   12.906858   88.644585
H   16.720238    6.395700   33.473427
H   11.404420   41.179916   62.844749
H   74.601997   93.840950   34.626392
H   24.838230   44.440994   75.561531
H   54.967148   92.923943   30.474882
H   30.998024   23.059505    5.207082
H   79.031822   17.444511   73.177917
H    2.040790   31.265642   55.393658
H   94.317528   28.410688   64.501183
H   47.977249   93.345642   58.309174
H   11.830048   48.922775    8.872818
H   37.078026   64.977669   28.063255
H   80.381493   80.397736   36.364155
H   99.218781   97.091827   63.458961
H   29.943979   19.001162   47.524620
H   47.766781   90.958511   72.294411
H   24.987638   26.575974   87.255760
H   90.427460   79.795029   84.871590
H   40.758118    0.625613   73.155731
H   59.510807   48.909328   20.998146
H   95.904854   51.802238   61.828148
H   27.105989    1.797233   26.167341
H   32.112076   39.680183   18.192963
H   90.165710   83.385979   46.682617
H   89.477943   70.820038    8.104928
H   29.402264   71.047836   95.677177
H   13.338431   92.243736   79.658653
H   91.215363    2.000433   91.084969
H   19.875519   70.951263   24.814905
H   86.142181   81.252045   28.220320
H    4.029308   75.448837   74.046570
H   42.637356   85.357925   64.754601
H   46.600784   73.859741   37.122826
H   40.478840   88.078522   68.023254
H   31.062138   32.439594   97.968269
H   70.211227   23.065559   60.453949
H   56.434078   32.912277   94.109901
H   71.574997   30.570641   99.072449
H    2.324008   86.217491   28.728367
H   43.266529   17.742310   91.849121
H   82.273224   25.510147   34.774670
H   84.484337   43.143677   91.173378
H   92.284782   47.736313   92.660980
H   50.573166   78.024597   31.348799
H   98.126938    8.700171   68.542404
H   27.329149   84.371620    2.657201
H   54.641838   32.662704   19.668537
H   77.749779   92.778351   31.654160
H   18.487015    7.954108   59.938118
H   89.629738    9.063605   30.202999
H   69.546440   94.014938   30.429626
H   21.518942   58.554985   83.521873
H   93.334892   61.622398   28.178432
H   76.999794   69.724770   35.012486
H   77.427101   61.069069   61.704651
H   95.122910   74.378082   43.043438
H   28.580833   25.999067   40.454678
H   38.568909   87.879883   31.624516
H    4.234526   31.475084   94.057800
H    6.286488   47.394279   18.423893
H   73.419540   30.554825   23.491177
H   69.330627   38.009220   68.292717
H   49.972576   18.716194   86.580925
H   37.911610   33.835011   77.713539
H   11.825839   41.183159   50.666615
H   97.896980   10.621868   55.512959
H    3.229060   12.382490   15.738758
H   36.303444   42.812214   58.352409
H   20.767799   10.438725    6.901237
H   82.205093   66.990860   97.842407
H   14.812491   68.032181   81.984619
H   48.418140   68.099091   77.068176
H    0.920847   24.069660   30.502464
H   74.847900   20.887180   94.410645
H   67.405029   42.941696   94.902939
H   10.596045   38.331734   97.350876
H   14.628996   13.466660   57.836044
H   31.328842   91.224831   98.379402
H   44.071796   59.312317   54.515800
H   73.191010   70.249825   10.437539
H   47.987869   69.628471    2.979841
H   19.105679   36.885429    0.877898
H   99.530190   34.328606   72.581276
H   93.569481   23.232517   99.846092
H   94.983612   51.793892   79.179848
H   73.279480   76.859749   27.562365
H   20.246107   47.272675   97.712456
H   35.073906   52.562458   39.730247
H   65.614464   85.096657   46.605736
