100
TIME:    4.168, STEP:  4168
H   35.456940   39.794434   95.330093
H   85.365852   30.721483   40.911636
H   51.398842   73.766747   74.418221
H   82.176193   60.928764   11.700219
H   57.838654    6.841083   52.692642
H   63.392529   96.692589   91.516930
H   34.525707   42.781460   16.396036
H   92.289711   49.186275   25.501797
H   51.170540   85.557114   37.726162
H   60.939934   76.229668   70.905823
H   12.557816   33.950886   38.266697
H   96.758080   32.610771   96.246742
H   78.098465    9.542656   10.868729
H   48.705772   92.228920   74.427322
H   31.200562   97.725159   50.421284
H   33.938934   47.180595   87.060486
H   88.941292   57.650318   52.817833
H   90.204308   92.010674   55.044598
H   10.186363   53.207603   82.948547
H   80.224236   17.304041    0.109489
H   16.941681   41.280117   44.116127
H   61.970566   49.617065   64.334579
H   30.095222   60.724144   13.098304
H   31.789162   86.670288   97.520401
H   80.512848   55.617157   67.321449
H   27.546225    3.436954   98.479134
H    2.667143   69.220047   82.668861
H   80.857819   50.987854    4.541975
H    1.799575   27.245342   60.148476
H   60.812729   87.681450   14.732708
H   80.092995   95.808540   79.620049
H   28.927137   37.353821   13.411385
H   63.946995   63.531548   73.283310
H   54.209656   91.750488   96.160728
H   77.165726   43.851341   78.530014
H   34.954395   11.884836    6.324859
H   79.564072   51.895004   36.887318
H   91.721535   82.675301   16.566296
H   69.141724   90.604851   40.401787
H   70.613670   21.988819   65.965027
H   50.398209   99.199844   40.541973
H   57.025040   98.919037   98.618057
H   47.142262   88.494202    2.533396
H   13.204157   82.622162   88.259644
H   95.112724   67.441345   12.777606
H   24.314754   42.415028    0.091181
H   74.297165   51.508141   65.476402
H   56.462009   38.299011   26.470116
H   86.865341   87.256073   78.211823
H   13.292994   94.173897   92.149513
H   43.226627   67.249977   97.363541
H    7.690027   76.980530    0.439317
H   95.329628   46.176208   60.799755
H   80.170616   39.201332   15.738795
H    8.931887   23.861650   35.797550
H   98.781326    8.149527   50.738251
H   60.483501   69.280785   52.398964
H   15.697755   83.271294    6.196444
H   18.998365   14.876772   91.503456
H   83.973694   48.155102   45.062752
H   22.621382   84.740623   89.426003
H   50.984154   89.146927    6.764272
H   57.026905   22.866364   47.658195
H   29.248163   64.468048   13.977406
H   97.756676   27.952385   83.716545
H   45.298225   35.069099   92.628494
H   53.162247   92.461548   68.293259
H   92.453362   55.909805   65.457100
H   64.636612   50.300430   98.821899
H   14.830431   57.782257   92.956512
H   89.679008   11.808899   12.149345
H   30.296787   13.197410   61.784428
H   35.230606   12.140926   54.883018
H   38.456936   85.620445   55.505455
H   63.125515   34.581173   17.360678
H   24.191050   74.703331   15.476353
H   45.382576   65.293015   64.762184
H   27.800549   78.185890   44.623611
H   61.381683   41.275997   64.189903
H   95.118500   81.956108   61.844292
H   92.435898   72.401535   29.100050
H   54.055817   71.447769   38.252319
H   81.506538   76.829590   26.881420
H   36.901962   68.823799   82.734390
H   49.382614   88.173653   43.711502
H   55.367802   62.154381   31.221909
H   45.526024    0.305358   22.289976
H   23.046267   71.594124   52.397438
H   42.182236   62.104546   94.101936
H   97.830917   37.793312   73.211731
H   94.594299   98.492271   21.482340
H   86.686218    8.956326   12.946072
H   52.630348   52.578781   41.322369
H   50.081402   66.054214    7.845875
H   84.527748   76.385979   11.863505
H   38.181320   31.140839   52.166374
H   31.765728    6.873606   97.483139
H   22.165380   51.725708   89.341072
H   10.159264   54.816906   95.922508
H   98.102455   71.673714   96.223068
