100
TIME:    4.660, STEP:  4660
H    2.186092   94.675667   94.879654
H   71.777596   57.383743   71.934692
H   59.855843    9.163318   68.645088
H   82.258774   40.658989   84.732796
H   53.431854   46.277054   39.352127
H   55.761333   96.159569   40.241634
H    8.740374   76.003769   54.871075
H   53.619484   91.751495   80.328438
H   39.076241   38.253464    6.755947
H   47.494316   83.294060   90.169617
H   66.793182   53.747700   90.874741
H   77.982262   57.272331   61.225075
H   46.702835   79.790535   61.980957
H   24.345097   90.712440   11.867511
H   37.184151   53.777283   26.769875
H   14.155441    4.148354   46.220642
H   49.377693   90.193832   97.606529
H    0.719056   68.076500   37.986279
H   17.849464   73.847198    8.870165
H   66.966301    6.855722   33.607063
H   87.745720   92.299225   30.764175
H    9.139084   50.270203   22.436203
H   23.526314   56.722740   99.021194
H   86.076981   92.571045   60.981941
H   62.915680   16.597839   70.954994
H   25.303411   88.894470   52.212452
H   60.242790   48.767300   92.428383
H   39.344547   73.952759   20.805933
H   12.498403   71.883690   36.890785
H   79.678635   75.504570   53.845039
H   99.454384   39.926716   40.694572
H   59.992443   23.761810   67.864510
H   98.600807   27.534163   17.606558
H   74.997437   46.661499   75.433006
H   64.936295    6.659821    8.490692
H   77.723618   50.420033    4.776942
H   26.753973   33.877426   75.655136
H   71.384193   73.674019   51.283916
H   48.373638   79.884392   92.723969
H   24.273863   75.930168    4.673021
H   16.773754   16.080427   52.133282
H   12.806564   21.000799   21.731493
H   51.380146   91.444580   38.070587
H   81.786697   90.865204   36.365334
H   52.434605   48.030495   54.879536
H   17.967312   51.799183    2.091264
H   78.140915   78.264244   70.198509
H   56.488285   43.366455   56.912315
H    1.249084   46.507931   58.586639
H   23.611813    1.659529   57.736626
H   43.189091   19.750652    2.550644
H   31.598978   31.325830   68.142761
H    5.533766   49.028992   32.223125
H   68.774498   31.172249   37.448570
H   69.758789   66.980232   39.982883
H   99.396927    7.631855   33.989410
H   91.676010   55.084435   99.192116
H   79.062393   36.808464   93.523544
H   57.799973   35.666046   53.733086
H   51.505962   85.971069   31.069099
H   53.657227   61.858654   51.064842
H   33.522118   84.567459   84.504089
H   90.427773   89.292770   13.920280
H   63.034721   67.148163    0.618124
H   17.285067   88.657623   29.534952
H   15.074158   10.610430   21.718893
H   13.687864    9.471791   92.046432
H   58.467705   84.047256   88.977547
H   89.155533   14.948441   67.966797
H   24.798281   82.527344   91.920502
H   74.056267   78.333405    6.246851
H   89.728912   96.868439   97.804802
H    3.150186   87.804054   42.266960
H   27.623867   54.486423   26.271935
H   86.848518   35.283108   54.657803
H   35.823647    6.234555   82.370285
H   90.052719   22.648182   73.463173
H   50.915600   46.014904   71.795296
H   84.976784   39.830837   69.677757
H   70.989960   55.161228   19.457939
H    2.060969   77.491501   58.506054
H   90.970345   74.660904   97.110741
H   12.629236   85.050964   73.739288
H   70.749481   10.925121   37.797737
H   25.426226   57.400322   96.017769
H   44.043003   80.224892   65.387741
H   78.385582   64.532959   45.750366
H   30.964617   32.203194   47.281197
H   52.392197   34.710320   90.078011
H   54.332645   17.549812   90.801392
H   14.729117   25.058815   31.872477
H   23.091284   45.955994   22.320879
H   84.168617   67.342781   79.369492
H   97.633896   95.895828   41.018353
H   76.021950   32.315285   23.168003
H   78.818466   11.713552   26.754082
H   92.713768   35.108349   69.188034
H   23.970892   55.914795   81.465889
H   86.721558   56.937725   54.713959
H   28.661623   59.047871   48.828129
