100
TIME:    1.262, STEP:  1262
H   31.977945    6.289529   97.990616
H   66.165413   73.169853   57.606808
H    1.447818   64.697365    8.521919
H   81.688431   80.655235   70.989983
H   83.867432   73.912392   31.486382
H    8.446823   99.840874    3.725298
H   86.828896   46.554585   89.142815
H   20.695587   97.781662   92.321037
H   22.605629   64.957230   20.648302
H   40.352058   34.503807   57.110497
H   82.866867   17.021534   18.187586
H    7.671780   86.948372    3.098957
H   62.985107   85.354515   99.696861
H   92.595085    1.186295   53.279713
H   95.850655   57.297970   90.108994
H   50.782257    1.351978   28.283676
H   22.604046   65.455063   88.257729
H   28.112640   33.329742   55.795212
H   64.916100   31.295885   29.849581
H   58.515701   79.014023    2.255491
H   89.387772   30.581329   22.991776
H   83.356560   45.765633   11.797668
H   68.894508   84.358452   96.241959
H    1.788037   51.817448   13.346718
H   84.447990   86.087044   45.873657
H   40.872379   90.005692   70.884811
H   53.255730   90.017166   25.009222
H   26.057625   15.345565    8.487082
H   38.612045   63.590458   97.517662
H   49.383617   59.605453   83.714226
H   65.745247   35.214447    9.548500
H   45.440556   17.645851   82.434425
H   59.252369   76.148491   11.487882
H   31.424370   58.067940   18.585253
H   49.402840   63.522621    1.576750
H   82.280609   83.620560   16.301970
H    0.841660   58.319191    7.905963
H   11.831381   35.855968   11.497967
H   93.985031   53.568016   21.169884
H   44.326950   94.038734   37.325550
H   48.996780   99.485481   72.076706
H   18.199821   68.498726   62.090992
H   22.111181   71.067780   92.629066
H   98.772682   33.920906    4.126068
H   47.186012   82.098221   64.102982
H   61.805950   86.987495   88.296059
H   49.405628   93.817825   38.406929
H   56.306812    8.376886   46.663326
H    1.922028   27.930496   94.131821
H   52.357967   49.957844   95.399620
H   43.448338   47.805809   66.723190
H   66.463737   46.635136   91.213425
H   35.058151   29.326233   29.574287
H   47.466198   86.614571   87.505692
H   40.292450   69.139420   11.115065
H   95.145279   11.205645   49.665344
H   76.256348   53.132576   76.014107
H   32.087097   57.707451   81.048904
H   89.808510   92.090607   14.598541
H   75.739044   24.789228   27.715294
H   39.309032   19.883446   16.000885
H   54.120300   16.198837   38.253654
H   59.834694   21.094643   46.980080
H   29.698156   48.659454   92.875954
H   82.413658   60.051250   13.088433
H   23.818489   79.535347   20.804640
H   86.315659   91.993744   27.992310
H   93.190666   89.711777   26.533499
H   19.799438   59.107056   81.082344
H   55.950111   11.617531   99.075714
H   81.957680    9.534178   47.011723
H   69.908585    9.642067   49.019882
H   24.707291   55.881207   29.389042
H    2.414473   69.518951   28.204185
H   23.018372   30.439375   97.065605
H   55.495724   88.455101   11.013520
H   81.536705   17.164988   13.364677
H   91.271378   68.202919   84.135666
H   22.043200   49.805515   31.760208
H   37.634750   40.223022   12.198693
H   35.578320   42.337627   55.415218
H   36.011944   52.469376   81.249588
H   97.648247   28.320238   50.099094
H   36.984440   20.152567   48.160255
H   90.880066   69.946381   25.415596
H   22.245510   55.411678   29.420509
H   51.440849   11.595253   83.720062
H   76.270874    4.255934   82.624062
H   81.872261   23.905851   17.874756
H   54.760513   57.354950   69.329262
H   75.668770   41.575848   60.112865
H   71.662178   90.420860   57.567055
H   66.256310   65.442612   16.546556
H   69.205635   89.782341   11.909249
H   34.773930   36.687553   45.085381
H   98.157578   45.895622    2.264836
H   62.430679   40.103924   64.610321
H   11.498782   26.982849   35.844528
H   48.593193   42.290279   39.339046
H   17.615891   46.288219   76.137154
