100
TIME:    6.887, STEP:  6887
H   51.582352   90.450081   92.840775
H   10.274403   78.060936   12.352252
H   98.150955   69.382378   42.499477
H   82.632568   48.906464   62.664486
H   33.484818   24.780760   78.970749
H   21.219318   93.746895   60.789715
H   92.022766   26.380650   29.025522
H   78.581673   84.414886   75.852837
H   84.332268   24.136536   66.576073
H   86.651070   15.272015   77.371651
H   59.643066   43.355839   76.358284
H   92.982208   68.900375    2.705344
H    4.592972   45.118137   40.694511
H   14.078295   83.848213   81.343987
H   64.255501   54.852043   19.707264
H   24.612747    9.366837   61.359863
H   70.295509   37.492054    0.339120
H   48.342770   59.717606   60.784927
H   52.530872   67.273315   26.196011
H    6.971436   59.556568   85.231621
H   55.592377   70.595367   70.315742
H   22.643738   53.226578   32.786591
H   93.790825   38.610695   35.306213
H   79.156776   19.216768   95.584656
H   83.266060   39.986824   87.401955
H   15.134472   23.071690   42.785706
H   68.206139   56.194138   36.617023
H   51.436150   77.901588   94.419449
H   60.922096   73.934578   31.619112
H   65.071259   20.386864   30.884872
H   87.102257   39.626205   64.501488
H    0.606770   62.227863   61.699974
H   55.468929   64.596626   18.232306
H   69.093895   42.570206   81.613327
H    9.557474   38.227486   44.062653
H   71.312843   24.848331   97.773903
H   40.351906   52.318970   51.133945
H   79.339378   32.917454    8.438766
H   54.371395   31.359175   76.910980
H   14.515369   67.446274   79.889816
H   64.573914   92.493767    4.600133
H   19.815262   68.610519   31.554062
H   70.556793    4.801008   98.930046
H   39.585041   28.240683   54.109406
H   59.258636   60.164089   45.449650
H   89.226433   94.275833   11.140429
H   95.539352   99.375809   91.572762
H   56.607967   66.303848   94.706482
H   66.341133   62.067539   69.750595
H   70.333252   35.557980    1.992366
H   43.028698    4.747810   26.025677
H   39.835346   24.676636   21.947762
H   51.730526   61.941895    2.881928
H   17.206268   94.833496   35.719803
H   92.441360   62.149658   58.927471
H    2.173509    5.289268   58.177063
H   32.857708   90.824760   10.998518
H   13.235663   26.495558   36.163071
H   33.439972   29.765156   82.769096
H    4.548779   57.146854   67.727928
H   94.137474   58.292702   77.430771
H   54.484840   63.838852   83.739212
H   41.619061   37.326942   61.208191
H   15.957218   79.279495   40.158474
H    5.678734   10.790623   36.925694
H   78.268219   99.900291   53.397034
H   35.012039   86.463562   99.565750
H    4.633497   11.411952   95.441025
H    0.147848   54.930435   28.291889
H   69.912071   94.537529   87.231079
H    3.338319   26.810242   79.535927
H    6.119994   22.949440   60.864616
H   57.946045   77.648911   85.165833
H   78.597878   13.541615   93.951935
H   94.221428   38.460361   23.479614
H   88.469810   48.965519   32.522034
H   92.269135   29.713306   12.883421
H   55.544109    0.395680   94.782097
H   91.770424   33.289433   94.518105
H   61.779984   33.852669   27.599876
H   45.640945    0.530960   91.609329
H   58.090820   89.133972   10.838348
H   53.494347   22.293005   85.826355
H   23.964615    1.494322   34.395992
H   16.989622   18.098732   80.135017
H   92.784897   62.027496   20.037567
H   27.121950    2.611503   51.942131
H   66.790916   53.969929   24.170387
H   98.606796   10.715427   71.864021
H   57.436184   25.925846   70.408737
H    5.867126   45.309456   78.902634
H   87.867157   13.447747   64.747078
H   26.923328   34.163700   51.586861
H   12.868981   30.999109   91.178879
H   37.521111   32.834213   74.342407
H   62.759552   23.771395   11.726557
H   15.944855   62.910507   41.111893
H   24.983820   27.228489   40.624939
H   80.632347   66.541939   68.179695
H   66.987862    1.904027   34.293949
