100
TIME:    7.655, STEP:  7655
H   99.646233   20.020893   92.137650
H   89.064682   19.676563   60.778797
H   11.353388   24.635002   33.481899
H   82.761475   17.264473   20.565674
H   26.603613   86.339348   58.146530
H    9.308032   92.914864   36.846275
H   51.770641   78.240372   89.084122
H   18.218391   50.856007    5.336465
H   65.453362   50.296387   18.231514
H   65.674507   26.299456    7.442545
H   88.205582   74.258179    2.381533
H   63.673546    7.396198   48.037498
H   55.615807   98.639496   64.372993
H   76.051521   81.481026   39.789356
H   73.583626   86.250504   82.772736
H   93.731644   42.194763   97.608673
H    8.537519   88.289780   70.253204
H   64.766327   22.346512   34.165787
H   64.490097   99.488159   66.655380
H   86.278091   43.249928   37.520576
H   10.018158   94.137390   49.472172
H   96.272644   54.246109   67.384323
H   83.536919   32.364601   13.331246
H    7.797686   28.404268   38.546883
H   55.797310   79.080627   93.073830
H   11.513378    0.434007   70.513695
H    1.979311   24.267115   51.857258
H   86.635033   13.749213   19.805468
H   77.621315   43.613239   95.316826
H   94.520477    1.377924   91.939507
H   17.327330    8.494751    3.739819
H   49.098598   41.011066   90.602394
H    9.564377    8.406450   87.419807
H    1.543188   72.187660   49.257858
H   90.443748   80.079124   90.787811
H   38.073429   85.001022   95.359840
H   14.013448   24.193155   11.649304
H   47.596313   18.860813   62.632126
H   21.951473   14.627729    2.486316
H   42.177910   95.547501   40.314049
H   12.086744   18.845228   22.692961
H   55.092262   71.622238   70.760185
H   77.166168    9.407942   54.401287
H   90.546417   41.131310   29.200996
H   92.641350   29.865261   11.168900
H   79.312370    8.922809   14.260546
H    1.540287   41.143562   98.943855
H   56.654842   74.214005   42.225552
H   88.794258   98.463814   39.113022
H   86.458252   47.247433   48.295197
H   42.975964   30.603064   34.121170
H   77.161407   53.412151   71.533691
H   67.660820   66.395020   58.280159
H   99.422882   82.306152   69.610428
H   31.292889   29.452229   65.459366
H    3.130052    4.481406   32.032532
H   81.545364   68.664604   84.041588
H   56.048508   53.967216   16.379507
H   94.007072   62.220234   23.811657
H   53.866753   16.176403   45.884178
H   42.584240   22.579037   17.552505
H   27.227028   56.690414   48.990585
H   93.758293   84.919342    8.544128
H   68.696037   83.463089   19.304958
H   36.162590   49.452679    8.445571
H   31.088589   61.720604   98.807190
H   73.393402   13.016308   36.646282
H   51.582588   55.335197   32.155869
H   38.426659   99.746864   80.124847
H   85.493828   33.135136   85.607468
H   78.951332   74.555893   70.324989
H   42.896618   97.423241   17.154970
H    7.870413   39.664684   65.478333
H   61.688526   64.933167   48.319122
H   31.219530   39.586773   81.709000
H    6.623948   98.186058   80.844582
H   62.020222   63.241943   26.503538
H   91.626144   50.180004   37.196941
H   28.598425   31.033573    3.086132
H   24.116535   92.014915   61.436104
H   60.674278    8.476846   37.511795
H   15.721934   94.114441   46.586605
H    2.070051   35.136753   58.967491
H   76.800468   67.214111   64.250175
H   79.595093   70.053612    5.686631
H   75.113022   90.234940   73.369598
H   78.414925   46.771614   88.563225
H   79.142479   92.513184   16.207497
H   14.546601   67.954109   65.582771
H   89.533844   94.327286   97.865768
H   37.296864   86.779472   95.121384
H   44.691380   71.208588   79.383797
H   76.153793   57.208622   10.977481
H   87.092201   77.592857   42.963634
H   24.242054   64.042435   91.990845
H   26.193237   93.444946   72.058159
H   54.984306    6.984495   96.942329
H   23.501398   65.227089   25.207632
H   44.046410   69.858345    3.849996
H   14.693512   82.193436   60.310726
