100
TIME:    6.862, STEP:  6862
H   53.273026   92.742714   92.863663
H   10.964767   76.706337   10.775924
H   97.721039   67.583748   42.793018
H   82.628372   49.936432   64.034912
H   33.708740   22.776899   79.648621
H   21.607082   93.773979   58.313786
H   93.333115   24.692455   27.070490
H   80.546623   82.251953   78.148140
H   84.946815   26.540176   68.149635
H   87.333900   14.913004   76.392799
H   61.968506   42.349903   78.766502
H   93.936264   67.647247    4.484820
H    6.188278   46.630093   43.178642
H   15.316116   83.925270   79.441597
H   63.951851   57.085167   20.909466
H   25.618015   11.553469   63.435059
H   72.305855   35.838573   98.063271
H   47.808140   60.934113   61.651436
H   52.141582   66.224655   24.878986
H    7.644920   60.087383   83.529503
H   57.075912   73.084076   70.994377
H   20.246964   53.193390   34.915573
H   94.124611   38.814018   36.021469
H   81.479546   18.917696   97.441269
H   84.160225   41.969513   87.217323
H   15.252346   23.808594   45.138420
H   70.361824   57.233452   36.120922
H   53.545486   76.734673   93.593185
H   60.378502   71.666359   32.800873
H   64.112625   21.005608   28.897511
H   86.118446   37.384499   66.479408
H   99.028259   62.918514   64.014351
H   53.707874   66.425774   15.980107
H   68.037605   44.861313   82.666565
H   10.179699   40.120338   42.541542
H   69.139610   22.890152   97.852486
H   37.954178   53.234497   49.164036
H   80.372780   33.375027    6.674641
H   55.426731   31.903818   79.333694
H   16.870087   69.786591   77.922958
H   66.282516   91.635841    4.011192
H   21.922119   68.512482   30.277760
H   70.341644    4.651043   97.124168
H   41.181301   27.821066   51.665138
H   61.427101   61.150379   43.310368
H   89.549156   93.798996   11.038862
H   95.344040   98.016251   91.332817
H   56.606441   66.046356   93.159622
H   65.610237   64.137978   70.747757
H   69.808350   35.177464    3.740379
H   43.030415    7.161441   25.762177
H   38.620174   26.996544   23.588844
H   51.211918   61.796936    4.333906
H   17.785149   95.241287   34.616592
H   94.431870   59.958687   58.714802
H    2.142372    5.315565   59.028122
H   31.272890   91.546120    8.620770
H   15.097188   28.856569   36.806992
H   31.468346   28.708675   84.688271
H    6.198492   55.225201   68.438988
H   92.560478   59.455231   79.380081
H   55.372139   64.071548   84.870270
H   39.921711   39.032875   62.922516
H   14.240509   79.143311   40.837299
H    4.686412   12.787331   34.597584
H   79.804016    1.143076   51.918839
H   37.017807   85.599152   98.358780
H    6.360458    9.982108   94.245880
H   98.901955   56.726776   29.859921
H   69.405479   93.280205   87.283722
H    4.132219   28.511215   79.835762
H    8.177403   23.781330   59.032417
H   59.576065   78.885254   85.806702
H   79.148338   15.123856   95.437378
H   93.015984   38.424694   21.584377
H   87.878914   47.363155   34.204124
H   89.998627   31.877193   12.440058
H   54.369564    2.030386   93.401558
H   90.571465   33.362865   94.239250
H   63.006027   35.214516   29.753654
H   45.151711    0.272264   90.115112
H   56.214943   88.971848   12.929852
H   51.912964   21.874914   83.445602
H   22.244663   99.355003   36.679279
H   18.206892   19.662567   82.558495
H   93.360153   61.109108   18.301498
H   25.452257    4.429240   50.750038
H   66.388847   55.970547   24.429596
H   98.087997   12.107363   72.068489
H   59.646610   26.954479   69.514954
H    4.844001   43.959625   78.374680
H   86.017410   11.567531   64.270622
H   25.320774   33.413540   49.653572
H   10.452895   29.482386   89.493164
H   37.953316   35.073631   73.767914
H   60.694656   24.758543   13.017879
H   17.929167   61.475800   42.549652
H   25.032076   25.991478   41.126762
H   81.823296   66.433983   70.273582
H   65.434898    2.545541   36.702358
