100
TIME:    3.131, STEP:  3131
H    5.585857   34.892601   96.279495
H   14.175739   74.503601   75.502548
H   33.573822   99.161255   86.586388
H   82.002136    3.652182   68.543762
H   67.126968   23.720959   80.810760
H   79.469368   97.816048   88.819298
H   88.874672   72.758583   35.301216
H   73.795868   59.472248   20.715572
H   76.661980   85.260437    3.000994
H   89.279579   61.339882   30.296503
H    9.017029   92.225281   38.155781
H   36.339546   80.631622   70.061104
H   44.099136   72.277481   13.933329
H    0.052587   95.425240   95.509819
H   18.585384   90.354019    0.267064
H   75.633499   37.880463   73.140968
H   72.330727   89.062241   58.415630
H   68.051598   42.440208   90.997253
H   94.033669    9.701266   28.315638
H    8.165977   39.324894   29.505640
H   78.478745   44.516846   72.260300
H   62.552368   48.240433   52.644699
H   43.940666   69.157997   42.769440
H   28.137711   74.233124   74.538963
H   17.601749   37.855637   59.662941
H   32.302517   34.316319   95.702934
H   92.089111   12.324441   62.097759
H   68.356316    2.584197   70.267784
H   79.251160   33.160446    9.168646
H   21.049706   13.347955   32.293610
H   39.279743    2.818873   61.664192
H   63.450447   66.002571    9.411674
H   90.900726   39.403008   79.862160
H   10.393064   86.785347   39.846283
H    2.942285   22.240692   15.385056
H   44.782803   30.440996    9.877156
H   80.102303   89.871078   55.175838
H   34.581367    1.648142   43.386929
H   12.911036   13.198301   40.894775
H   68.287384   19.069277   84.375099
H   21.269976   63.613186   16.110701
H   50.224724   52.380547   49.897919
H   38.209972   82.275620   27.629364
H   79.423813   65.248108   86.866417
H   85.064323    8.359314   24.039251
H   37.693409   22.635822   95.882027
H   66.195602   95.111542   55.516769
H   56.406628   27.619864   62.306465
H   56.549721   73.139458   19.576689
H   91.546867   78.398003   64.676910
H   43.305744   67.365646   86.429596
H   57.293217   73.206436   68.518730
H   73.825676   40.163330   21.025311
H    4.189106   56.124420   69.978973
H   91.498032   32.977005   26.978277
H   97.483810    9.241339   86.040176
H   94.744225   99.202766   53.771629
H   92.915764   81.203140   32.909378
H   37.211815   71.061035   71.115578
H   52.404144   68.448044   74.557503
H   57.206703   32.966221   70.277512
H   87.789299   98.799179   53.688095
H   86.624123   93.628960   18.768417
H   58.040649   58.826363   42.135082
H   56.598682   10.775804   87.145241
H    9.002911   86.621620   31.313004
H   36.362953   56.607433   18.227041
H   64.086174   96.601807   15.882506
H   12.949808   24.812630   63.863239
H   93.819885    5.622190   95.140137
H   22.609184   82.366295   24.590466
H   15.802180   47.613388   85.859131
H    2.843987   63.432362   81.468987
H   61.288937   51.244308   17.123909
H   13.130216   33.101688   38.749424
H   99.673897    8.239977   85.252808
H   51.229954   55.173187   46.422901
H   79.080399   45.992596   87.353149
H   11.656587   44.321995   52.615242
H   45.975258   38.432865   51.182724
H   72.150345   61.673290   67.121307
H   76.247223   64.675369   24.965475
H   15.897074   59.518829   28.112064
H   65.556732   80.085297   77.447968
H   99.874969   53.039631   44.237038
H   79.232300   24.060455   59.209362
H   76.267128   75.703712   72.841446
H    6.356573   54.618912   63.181061
H   20.660378   19.843157    2.584112
H   89.515961   80.457962   36.143532
H   52.156036   42.496426   99.582718
H    9.954134   30.974733   93.184303
H   86.157852   21.462133   61.129478
H   49.851398    3.150436   37.925934
H    2.456056   69.274506   88.034508
H   52.529358   72.091621    5.728670
H   14.078498   47.362164   57.122993
H   18.359861   42.896271    5.937681
H   59.559807   50.346806   82.782784
H   33.689266   98.288612   96.120087
