200
TIME:    0.028, STEP:    28
H    2.956825   63.178577   11.714508
H   26.074720   29.782921   81.290825
H   22.581181   59.858948   34.906059
H   10.696439   74.495857   50.043442
H   17.461132   78.356140   56.706551
H   96.515320   58.569008   71.825066
H    0.287777   55.454552   45.547939
H   98.137978   79.731720   32.597431
H   78.818886   90.684479   52.891155
H   18.324032   77.868492    4.434302
H    4.804238   90.065376   86.262268
H   29.901154   36.364258    2.640856
H    5.970897   79.972054   69.980522
H   14.424480   52.312496   32.050106
H   29.857382   70.312599   43.500214
H   35.479786   34.701305   58.896294
H   74.234329   97.789459   25.724979
H   41.596436   72.975601   47.294643
H   57.971806   37.376751   39.362999
H   89.381783   82.616051   45.688892
H   55.540855   66.175400   35.553150
H   94.748695   40.711037   78.744339
H    1.353728   64.082870   54.223030
H    4.153287   86.184700   92.262581
H   94.031914    4.177475   52.975079
H   18.836584   52.928486   13.958410
H   94.790718   54.542912   40.557999
H   89.645050   61.383736    0.173447
H    2.139628   62.973579   39.579742
H    2.629628   15.085138    5.959095
H   13.638275   42.592197   15.935619
H   35.781200   58.537582   88.383675
H   32.245705    4.423775   70.589645
H    3.443367   63.346626   34.584763
H   58.162083   98.561020   35.831669
H   39.986290   54.755646   77.045479
H   80.179688   79.004715   84.363380
H   43.401524   39.271412   24.699371
H   60.916412   53.992031   39.719246
H   92.115860   40.560284   71.977631
H   80.443008   15.131175   94.487541
H    2.787231   47.552399   46.117287
H   80.518997   92.652016   42.456242
H   37.753555   52.938194   11.166221
H   21.533743   69.827042   36.713463
H   44.043144   19.355881   40.382229
H   75.979095   36.598518   91.530510
H   95.277046   65.553841   55.268997
H   78.881607   36.797268   61.013485
H   69.703354   16.844793   14.681665
H   83.251389   73.179436   36.270481
H   29.242258   32.049053   58.982910
H   46.459953    0.489175    5.154633
H   25.561798   77.709885   78.563728
H   86.172409   81.099747   97.629646
H    8.023344   77.572746   71.706207
H    6.035504   15.943230   51.928699
H   65.092514   53.651081    9.129807
H   32.654514   70.382126    1.999025
H   48.006535   97.179604   70.913269
H   51.106117   19.512583   48.430458
H   86.127640   15.922701   47.441471
H   65.606766   20.814737   92.037201
H   18.989479   64.849876   98.934349
H   67.940445   72.918610    9.260416
H   47.055725    8.324947   29.052628
H   94.094093   27.633781   81.455116
H   98.528618   90.967934   83.074318
H    8.981804    2.988372   64.663124
H   46.457317   37.934963   50.993916
H   58.558167   72.925415   67.610626
H   38.098301   29.394289   46.248821
H   70.765274   21.997997    6.594290
H    0.958706   13.624513   54.401318
H   76.563614   97.439491   77.580948
H   47.955208   26.561268   64.262650
H   96.323639   22.057940   75.144295
H   34.407345    2.109509   55.216866
H    9.918789   20.248030   39.633862
H   71.470520   91.849289    4.315687
H   34.370327   33.684875    4.280437
H   17.314796   72.402534   94.411064
H   11.826827   11.340838   96.482567
H   31.587374   54.927284   86.941864
H   46.457581   97.082092   63.790146
H   18.694443   93.191864   32.195984
H   26.353617    2.342348    1.285311
H   77.094490   26.434580    3.446066
H   59.203049   71.523384   76.394814
H   24.505974   76.544746   57.197842
H   50.129318   33.062672   81.697449
H   85.532143   86.675415   93.741989
H   37.188755   19.253067    1.767628
H   69.534790    2.050134   63.283634
H   19.753006   59.793907   59.110222
H   78.051491   22.969414   39.029224
H   76.429802   21.611799   89.198822
H   12.722704   25.144405   46.586338
H   41.821678   71.901718   52.129951
H   63.518307   94.482254   27.198648
H    0.407648   74.564819   58.956596
H   82.688942   73.449203   67.034004
H   18.784834   44.917450   27.540112
H   11.688913   67.548065   81.743637
H   25.619768   30.258759   18.214251
H   79.030251   37.152546   53.816139
H   55.615673   27.464411   57.245865
H   65.999855   26.134651   26.939154
H   67.408897   42.765694   88.881310
H   97.556854   31.016245    4.499682
H   44.405281   97.909035    0.646693
H   77.481415   58.013435   88.096336
H   60.776123   77.814545   98.546669
H   63.942314   23.967804   80.420898
H   70.924904   73.140625   34.206089
H   22.690182   11.999353   69.370514
H   41.291279    5.457452   81.708664
H   41.846706   16.561619   38.216179
H   10.811172   49.754230   94.017380
H   65.187935   42.443661   41.434326
H   38.341927   20.350651   94.466698
H   27.436481   32.502155   41.952156
H   27.125275   30.763729   17.740171
H    7.200774   74.948250   27.148857
H   83.257713   14.196865   99.824799
H   39.955441   56.551510   29.624701
H    0.656134   48.200058   79.242203
H   80.065849   85.907249   33.212078
H   89.858803   60.157574   89.721535
H   57.469650   25.154175   62.889885
H   40.051125   92.755280   95.309647
H   89.837303   83.948715    4.327579
H   93.130013   72.280373   95.798157
H   11.316018    7.567375   47.097366
H   93.953171    5.203363   66.158676
H   68.004532    1.898933   86.804863
H   68.541733   86.024300   44.784920
H   89.410057   70.839455   86.548073
H   40.771912   41.368881   71.600227
H   43.333107   19.257776    1.348352
H   40.122143   69.303741    8.061940
H   66.997879   34.569405   41.304829
H   61.820549   52.858936    6.534748
H   67.427376   34.201889   74.611366
H   30.336941   76.798050   42.136234
H   38.172417   58.322762   39.999596
H   39.717216   97.706200   48.799854
H   48.441231   81.310143   70.041283
H   59.517796   73.642868    0.051986
H    2.668626   86.303329   97.918739
H   83.692757   57.709545   52.944645
H   24.863512   12.975706   54.795929
H   66.327209   39.765621   10.907150
H    4.305693   96.276047   81.191383
H    5.205903   48.280300   56.917473
H   57.208672   43.003239   47.538666
H   57.092144   54.526272   78.245529
H   43.031982   40.061356    4.757339
H   22.084700    2.533141   10.466714
H   66.055794   65.593842   70.105392
H   51.873505   93.022209   89.052635
H   53.557781   24.154942   37.380569
H   56.093807   43.812759   37.320202
H    3.493010   13.951674   80.269348
H   60.984062   14.894834    7.741496
H    8.261130   71.183937   63.460712
H   78.550377    0.995738   49.974277
H   23.447018   21.287010   39.246235
H   91.192314   28.859640   37.357529
H   16.798286   12.059556   92.790680
H   83.415039    3.112648   35.993866
H   53.486671   73.320770   56.807098
H   33.576797   86.563614   96.389114
H   73.831627   79.626251   69.333450
H   81.291260   96.631332    9.198981
H   94.361679   46.515709   23.083353
H   37.595615   46.298576   78.039589
H   99.851051    8.998680   62.169384
H   81.023201   26.307878   71.614365
H   96.385216   52.180992   83.394371
H   85.288330   77.592339   46.648422
H   14.951632   29.847256   61.876759
H   75.394730   90.385727    1.874134
H   46.864769   24.827707   69.391029
H   82.781418   97.529480   79.270248
H   94.822197   34.434891   82.893166
H   23.970472    8.156000   94.568130
H    0.606009   58.245090   18.108601
H   12.757744   60.228016   64.120499
H   45.758423   59.426540   63.024555
H   37.692722   38.038338   80.815376
H   49.390846   79.167908   27.324690
H   99.391548   12.480468   52.949875
H   38.807484   55.069489   29.040556
H   92.169815   63.724590   22.509758
H   74.810562    9.863239   32.470940
H    8.052093   79.778709   96.311234
H   35.070892    1.619345   52.945549
H   14.740378   11.018702   87.498451
H   10.218967   42.174946    0.694257
