200
TIME:    0.717, STEP:   717
H   24.128321   60.891933   23.495981
H   32.215759   39.841816    9.261780
H    8.140200   90.016365   68.843010
H   33.921387   82.549049   32.026264
H   10.145712   95.818741   46.800388
H   74.100952   39.868465   51.430874
H   10.270103   54.965683   58.884068
H   13.577929    9.483562    8.141066
H    6.799651   80.355156   36.083008
H   94.069916   68.217278   77.257683
H   28.819563    4.783756    8.035316
H   32.750259   54.754658   35.470325
H   22.881550    2.838779   41.741783
H   81.858353   55.219425   65.251122
H   96.592361   75.616562   41.804943
H   15.396764    6.312752   44.033108
H    6.646329   30.058767   92.272652
H   25.235647    6.098130   35.028244
H   80.896065   12.432996   49.505711
H   91.573807   73.154076   18.979839
H   63.809570    0.569663    3.987200
H   79.409782   67.046867   52.192986
H   80.721268   59.073280   37.690857
H   18.711618   92.408051   90.090363
H   23.979332   31.888201   28.389713
H   18.266237   83.505486   91.202362
H    8.133142   68.367912   68.260559
H    5.457545   89.806702    1.986399
H   31.158913   42.031075   35.545261
H   71.494316   33.542671   82.125671
H   12.738730   71.377632   16.777998
H   23.251968   74.686020    5.347166
H   15.597885   19.249363   79.005547
H   80.639610   64.098328   46.627754
H   25.097462   70.090988   30.590431
H   17.479931   39.046139   84.946228
H   99.955215   64.133644   89.535927
H    9.320761   57.094093   93.720848
H   35.416389   29.320074   55.034504
H   85.508247   37.726948   45.063568
H   80.646240   82.941032   17.357037
H   37.081589   33.104488   25.686899
H   68.113297   76.824234   68.040375
H   36.218613   86.401176   35.807892
H   45.075077   90.848396   61.577431
H   34.347248    1.424638   47.875587
H   88.963028    2.842716    6.637111
H   78.503067   65.543327   30.499649
H    5.527648   10.650811   61.510239
H   45.047630   19.954103   85.532616
H   66.861145   64.458649    8.964968
H    2.904126   43.908062   73.797050
H   65.042076   80.780487   14.162095
H   15.307338   92.249786   88.766891
H   57.008499   65.776604   75.346695
H   99.190971   60.598484   94.267761
H    4.069188   18.550514   44.537846
H   72.620041   69.668098   96.693733
H   18.115986   83.691971   18.663166
H   32.070992   93.310707   58.176399
H   48.874668    6.070007   28.299864
H   98.509544   17.554861   52.722946
H   84.588539   35.087578   68.792282
H   35.683586   65.832870   14.317593
H   79.016212   83.190109   37.435169
H   20.028061   35.092796   41.437302
H   68.357521   13.100319   95.690132
H   94.670235   92.534416   96.715332
H   33.489365   12.299218   55.942337
H   42.491173   49.943787   50.957119
H   58.255909   84.842247   86.040451
H   18.734518   11.283978   41.425842
H   92.632950   33.909573   83.523216
H   23.405510   98.479935   74.459450
H   84.953232    8.593099   45.184196
H   65.370499    2.236401   59.760479
H   93.411453   47.707775   65.398460
H    8.887916   14.655849   31.656548
H   15.157144   50.944756   24.373034
H   61.087891   88.006676   71.640228
H   63.613087   22.040264   94.051956
H   47.610878   60.011757   73.111107
H    9.138706   18.898590   76.323303
H    9.119125   77.457298    9.397915
H   21.922153    4.367925   44.264309
H   38.105534   69.084854   17.853207
H   57.233822    3.778071    2.864898
H   71.364738    0.790940   29.433588
H   80.285934   73.218208   78.888611
H   21.054981    7.428052   49.617748
H   21.247610   39.010574   78.632820
H   80.732819   92.720566    8.775852
H   69.919777   11.482420   82.144615
H   38.638344   77.296555   82.202225
H   37.211273   50.473862   87.806290
H   49.518379   38.374035    6.634222
H   85.776131   97.780434   18.872345
H   93.782104   35.850422   53.109844
H   26.209419   64.999733   54.571667
H   75.498215    5.678082   27.366861
H   31.148283   93.614929   91.401070
H    8.309237   83.873146   63.233444
H   33.067162   19.737442   37.168282
H   44.796120   68.820175    9.104970
H   24.706425   21.204174   40.552406
H    6.307395    3.419090   21.558262
H   88.254227   36.019615   54.039307
H   61.940384   52.588757    0.296812
H   84.918808   34.068562   22.197971
H   19.689672   21.409712    7.871825
H   53.470379   91.921707    1.131455
H    5.146836   75.340271   95.944519
H   48.809353   85.809914   83.559952
H   61.608360    9.113817   62.653614
H   47.932304    1.831386   10.047546
H   94.571991   91.843803    0.453115
H   12.963106   15.159348   89.740829
H   38.351032   50.474915   24.443748
H   36.977222   75.622215   59.965096
H   83.370697   56.195065   67.137054
H   45.533028   24.929195   71.889374
H   97.707771   16.180248   62.219181
H   43.736336    1.704641   38.179749
H   97.049660   50.154087   96.976585
H   62.643349   97.142014   77.037109
H   65.197884   75.402908   16.321426
H   83.530052   51.417130   52.633026
H   64.995026   91.311089   39.031193
H   98.337784   35.217384   74.019913
H   90.865166   21.888479   74.627991
H   67.864075   68.154144   21.640202
H   63.391083   90.782364   20.575817
H   90.880165    5.801819    0.923697
H   77.531288   25.232742   55.577747
H   27.990231   92.745193   34.497856
H   49.653557    1.014665   76.654266
H   69.682426   87.780022   79.084579
H   95.286995   49.327438   75.661545
H   58.781204   51.004326   71.437271
H   43.706329   86.213234   82.203445
H   74.232567   49.041286   30.318375
H   35.279236   55.504025   57.366531
H   39.671642   65.540291   83.295250
H   35.855919    9.261085   86.028816
H   62.723179   53.947380   64.666245
H   63.417492   70.193542    7.000947
H   56.012840   94.688881   43.866486
H   29.627670   55.662933   66.088280
H   77.937103   44.876713   93.202553
H   24.667360   93.882523   72.146553
H   59.407520   69.410858   47.743187
H   53.866772   93.910828   33.204227
H   98.334969   14.002766   86.720192
H   22.519102   12.091655   64.165085
H   32.527390   66.476562   69.382492
H   77.662308   44.711651   68.736702
H   64.304276   75.188972   86.403854
H   52.827755   29.006615   20.899271
H   90.550293   99.937012   84.914856
H   58.331841   37.481262   96.546356
H   58.641445   65.030533   70.733200
H   21.207901   20.584360   31.411640
H   85.751839   13.772818   37.033714
H   28.783760   34.192482   50.791218
H   54.386963   38.273800   14.511407
H   20.131968   49.261925   59.694321
H   66.686111   89.851814   57.278397
H   24.048904   52.635059   67.737289
H    0.554525   26.618992   35.730595
H   48.240955    6.860069   85.031860
H   70.252380   11.306455   35.936043
H   29.684418   47.729710   58.922901
H   46.889271   56.957520   77.002579
H   65.352234   63.128834   85.306145
H   49.267731   91.448273   76.802902
H   15.634325   50.237534   23.745134
H   30.517532   67.822411    6.861209
H    5.957579    9.655762   70.979538
H   63.402809   10.290623   63.556061
H   63.610020   59.571846   93.113922
H   72.709160    2.282974   30.628885
H   28.848858   30.688320   87.029839
H   43.672089   89.664101   15.517174
H   61.868793   26.102997   94.738609
H   91.691444   67.645409   76.431656
H    9.246211   40.248749   86.341530
H   47.961395   96.354187    9.834335
H   67.504875   87.429512   42.217480
H   92.804329   63.300529   71.994965
H   58.287655   55.678547   71.729568
H   70.606728   15.242863   75.895149
H   43.742573   97.892105   18.548708
H   14.695692   28.872026   68.733765
H   26.770321   82.567894   42.926285
H   68.525391   32.949516   20.255968
H   76.492691   11.553910   23.031240
H   12.631951   98.565987   19.566694
H   15.046756   87.926010   33.514332
H    5.552406   12.946579   56.683952
H    3.032671   18.832037   91.121773
