100
TIME:    8.874, STEP:  8874
H   17.209812    8.233517   91.021622
H   55.397842   85.733047   37.639011
H   32.306812   12.335170   19.173012
H   82.966080   67.041618   53.749496
H   15.680490   84.047485   25.094479
H   90.406494   91.594231   57.568596
H   87.883690   60.554230   84.411522
H   22.407394   56.314808   93.412148
H   35.488014   33.093842   41.500675
H   32.379677   43.802494   55.173714
H   74.817169   23.306305   84.960655
H   17.144485   68.498390   61.267952
H   77.884079   24.856392   43.233513
H   15.694261   77.723732   32.555538
H   88.389595   77.363411   24.150398
H   44.719421   35.576561   96.420959
H   10.512755   68.915764   81.223579
H   90.828384   63.030113   91.910233
H   83.481171   50.629864   30.878422
H   53.432667   17.364752   20.515741
H   37.680977   72.783112   16.389051
H   13.139367   55.864349   63.575211
H   67.261513   22.455034   78.454483
H   94.535156   42.987030   48.014149
H   12.199733   82.407852    2.075452
H    5.764828   64.497971   55.799809
H   96.863731   73.596634   76.042526
H   83.779175   70.648026   60.101967
H    4.127238   54.210567   37.692589
H   41.261009   71.207870   88.846466
H   65.305550   17.804768    7.296440
H   26.066944    7.334351   77.753456
H   95.428970   19.218235   97.236954
H   53.049973   60.473541   97.904732
H   60.106392   87.783699   64.955475
H   44.038868   80.481903   91.528145
H   30.931393   79.549568    7.701821
H   97.214195   96.552559   48.653976
H   70.499199   88.068810   84.356094
H   27.362169   81.429420   36.222298
H   28.776014   60.668373   51.412075
H   52.361542   76.402557   32.994678
H   87.656830   16.720478   42.450817
H   12.710087   61.598190   48.386417
H   86.901947   81.777245   15.483541
H   63.576630   32.168774   19.212919
H   11.070153    7.436167   10.649860
H   56.729244   86.769318   17.649967
H   24.426620   97.506325   90.486267
H   12.049200   65.802299   63.063915
H   42.892262   12.915970   46.974091
H   36.405926   40.297642   91.513008
H   92.938850   73.463196   87.484695
H   71.187378   62.421516   23.400959
H   34.234261   36.279694   75.819824
H    4.648315    3.199137   90.534882
H   58.823669   33.491127   99.978584
H   65.279480   38.847725   84.980614
H   90.151390   13.726655   30.228270
H   73.425514    9.872586   11.212914
H   19.479261   65.887329   22.509533
H   83.962303   45.344131   93.834007
H   76.517242    1.736774   24.953644
H   52.402279   90.103455   86.210159
H   84.547745   52.092945   21.965811
H   56.205025    1.120860   70.884499
H   75.590714   55.157589   95.498154
H   67.377853   25.051304   90.431122
H   99.179688   12.157280    3.669975
H   10.251327   94.363174   83.022003
H   40.238056   91.612404   55.705025
H   42.514748   56.948631    6.507052
H   28.390366   79.365776   34.220562
H   34.857357   87.784340   75.890846
H   89.941132   41.381718   74.134323
H   35.444664   76.313835   98.822342
H   72.731277   57.734066   48.125397
H   48.891148   70.477013    4.526368
H   87.054054   27.452984   16.690165
H   64.336021   25.610811   56.418175
H   84.538673   21.087961   10.370112
H    7.194477    2.021715   44.604897
H   79.174828   55.522861   75.058434
H   60.665001   71.526588   52.913822
H   20.241013   93.799057   87.518951
H   47.057903   35.010208   58.020721
H   59.829243   58.140068   46.689796
H   98.747368   94.968056    3.568312
H   39.846439    0.082692   55.612923
H   81.758286   44.176758   41.440575
H   87.183311   52.599621   20.864769
H   34.885036   62.888977    2.614802
H   54.293980   93.778862    5.244624
H    4.903433   51.548206   25.158083
H    3.163345   54.851559   20.001146
H   26.877640   45.306946    9.095333
H   58.225853   76.939476   26.836838
H   21.148439   25.546299    0.734072
H   85.976250   75.122276    1.746057
H   90.409988   50.911350   42.879841
