100
TIME:    0.004, STEP:     4
H   17.052031   21.654388   99.142349
H    1.158963    4.961586   78.252838
H   79.833160   74.191612   23.292900
H   81.477280   32.486198   39.944206
H   95.135223   73.078140   65.596886
H   27.954308    1.209298   79.141930
H   52.759838   61.609066   90.765289
H   19.571905   88.948212    7.826185
H   53.529671   85.908737   99.834541
H   74.731300   16.444923    7.845106
H   99.882965   66.403458   39.364189
H   55.689465   23.890968   92.644737
H   43.007652   61.465378   24.731583
H   54.884052    5.064934   57.545502
H   80.551796   69.663803   50.581097
H    1.360260   11.389282   32.708569
H   23.744165   82.261635   73.718864
H    1.230342   94.505981   99.407516
H   45.326584   78.521790   63.571594
H   92.541115    5.448626   16.460901
H   64.039185   55.819923   57.132339
H   62.731358   44.105217   18.914888
H   85.690620   94.589684   32.236832
H   18.669926   36.729740    6.777212
H   29.439432   85.855202   36.587723
H   46.634144   27.496758   88.794792
H   61.734837   42.311283    0.045782
H   32.202797   56.625881   66.908707
H   11.257960   49.454708   56.983063
H    1.147514   90.740646   83.706841
H   16.259096   22.400888    9.095480
H   66.009918   52.399406   98.893806
H   70.640564   68.189613   98.157303
H   78.271156   73.356140   71.582970
H   80.672401   58.617813   24.972359
H   72.902946   84.800285   20.630568
H   80.184608    4.386582    8.778946
H   63.822739   58.881039   22.724009
H   50.541553   80.422600   41.743652
H   62.815716   11.808435   38.348701
H   34.968098   56.316380   42.431782
H   31.261673   12.035929    2.988402
H   11.276336   63.523922    1.762574
H   79.104294   12.838948   81.122330
H   56.307701   31.734127   56.449341
H   77.900352   63.279057   83.333977
H   36.122303   25.956150   27.657415
H   56.239628   95.422836   68.825439
H   65.143791   32.117764   44.315140
H   25.973677   30.810276   83.385147
H   43.537029   69.258812   53.471722
H    5.327981   63.368721   73.800064
H    8.962440   22.031921    2.637128
H   76.591309    7.137057   31.992146
H   40.441460   58.856243    0.440135
H   93.571243   12.528309   92.490631
H   96.506035   89.431374   56.367897
H   25.762423   76.508690   13.452009
H   90.592842   38.938110   11.175990
H   58.760666   28.095144   63.483162
H   59.953140   78.384262   14.084437
H   98.769165   27.908127   95.172821
H   74.505074    6.880573   33.283661
H   43.314117   41.816238   27.032446
H   32.479958   60.525715   95.933479
H    1.099775   42.074329   46.422375
H   87.247398   48.500034   67.255478
H   80.089394   17.765881   66.393822
H   57.103157   49.498909   59.982922
H   30.467552   48.345428    1.722511
H   21.906042   95.132011   62.099430
H   73.636559   51.392769   56.915348
H    6.730631   18.109150   61.647175
H   30.103069   49.127285    2.970745
H   62.362972   28.649389    1.700831
H   25.752211    7.828517   95.660965
H   67.319031   26.197495   91.102234
H   32.168259   50.458332   14.660885
H   61.746246   53.487652   17.733055
H   99.329269    8.735942   20.576441
H   10.960510   29.322054   80.227783
H   41.624546   44.253677   86.445984
H   18.048977    7.324107   30.280733
H   50.445610   12.503880   63.064857
H   52.136719   48.636032   47.364464
H   51.208530    9.194217   42.063274
H   67.421867    3.062100   23.733944
H   56.019562    4.973846   95.696236
H   55.766304   93.949883   28.168373
H   65.980934    9.122574   24.354891
H   24.186281   73.646515   33.546215
H   78.582588   95.807579   33.601402
H   85.540871   27.751230   19.224031
H   47.614891   13.474813   27.088760
H   56.522495   49.371929   16.179501
H   94.251938   95.573723   67.242287
H   62.284813   67.909935   36.958809
H    6.880142   16.271729   55.971069
H    8.521378   36.867535   44.716419
H   39.489941   78.599602   97.300522
