100
TIME:    9.597, STEP:  9597
H   68.316071   41.930824   90.359695
H   35.429733   24.911129   83.226860
H   44.734478   64.350502   10.685701
H   83.087433   37.254936   14.117841
H    9.201887   41.998856    5.492447
H   79.197876   90.810951   29.168591
H   49.990452    9.372706   40.951077
H   65.581024   18.864788   27.028900
H   17.715294   63.579529   95.990059
H   12.629503   54.183704   83.482094
H    7.565455   52.397141   15.315641
H   89.549767    4.738646    9.804375
H   31.780914   81.094673   71.383575
H   79.895691   75.495247   87.575798
H   97.171150   12.781471   89.380882
H   15.648273   72.340195   36.406311
H   52.373390   16.738380   47.041122
H    6.293219   27.848732   66.845291
H   94.744949   80.959549   68.968414
H   33.955486    2.010820   69.740990
H   94.776642    0.805724   96.764145
H   82.454086   56.824142    2.005091
H   57.608421   16.577681   57.769287
H   27.357853   51.636200   94.317291
H   86.341171   25.070259    7.412357
H    2.354362   43.183945   87.761528
H   34.518700   43.541424   90.384262
H   22.774950    4.395223   83.998405
H   19.848858   19.806944    3.517339
H   68.984688   53.313797   46.322273
H   93.757347   82.637115   50.095001
H   71.717789   87.356979   10.821678
H   46.357750   66.320206   62.370506
H   83.597870   94.214989   67.445091
H   42.113029   33.042397    8.941405
H    6.888463   37.111774   89.255531
H    0.276602   53.072517   64.671402
H   67.328224   83.325066   99.675804
H   39.980053   72.314964   14.291897
H   59.262501   13.743409   93.106522
H   79.364716   85.478836   68.445641
H   91.430733   79.238144   69.902336
H   93.878937   21.058853   94.674522
H   66.550331   73.734596   19.077457
H   24.186590   53.255741   77.354752
H   54.248985   45.958904   22.150217
H   16.722904   46.758381   17.592875
H   56.773373   94.215988   62.385151
H   45.558617   37.626492   61.647896
H   27.224218   76.812340   12.510265
H   44.719364   43.256752   51.713623
H   71.543182   73.209351   44.052895
H    7.933598   77.655396   45.494179
H   54.443794   50.622681   55.305061
H   76.667305   99.639481   81.964706
H    5.548811    2.438611   65.922256
H    4.660990   12.629194   68.741997
H   11.443748   70.568810   66.358421
H   47.174862   44.278419   74.724251
H   25.716091   65.446671   90.649086
H   65.090607   32.266682   66.144295
H   58.301628   38.614548   61.123329
H   25.601650   52.402573   75.375961
H    2.048173   94.041916   66.584045
H   13.243556   94.346016   89.295158
H   11.790895   65.178307   13.634316
H   17.583221   80.154388   30.406013
H   17.435516   66.400093   24.994705
H   35.215439   60.207123   58.326977
H   24.935059   30.676805   81.488541
H   17.276501   42.417828   47.033791
H   82.977287   32.942772   59.500866
H   81.249832   43.602840   15.681110
H   18.943546   42.025822   32.931831
H   24.767534   42.446316   28.952475
H   52.538910   22.650051   50.172333
H   38.395454   95.154953   60.950218
H   82.856544   23.204445   44.457130
H   21.725019   25.329304   24.760149
H   28.879082   86.224831   94.131203
H   98.692863   28.567728   53.583046
H   61.445900    6.715186   84.118553
H   24.904512   67.614052   43.913235
H   10.407811   33.395706   86.879814
H   85.037567   48.569313   17.432566
H   30.415974   61.570000    8.228032
H    8.116854    5.571848   81.165123
H   10.374359   37.115700   96.074997
H   54.850101   59.826546   49.699715
H   17.834898   14.428688   67.283981
H   16.772116   91.640625   36.133202
H   88.379715   17.265669   16.388620
H    0.639837   15.471861   61.155327
H   72.899574   95.268723   76.792198
H   90.663422   90.088509   36.613503
H   86.594421   16.757334   71.751328
H    0.837983   18.430527   85.255585
H   19.752878   61.318394   86.215965
H   51.534019   78.244362   41.188602
H   35.317841   32.360867   73.231064
