100
TIME:    9.937, STEP:  9937
H   45.322906   10.751790   90.048416
H   26.040298   43.336269    4.663947
H   50.578747   88.811867    6.694193
H   83.144501   23.246557   95.481216
H    6.155241   69.251358   96.273796
H   73.926880   90.442604   62.841118
H   32.172306   32.332146   67.539520
H   38.857697   48.278088   95.810860
H    9.357445   30.889969   74.589607
H    3.341719   59.065601   96.794472
H   75.939423   66.077866   82.564400
H   76.574608   21.780319   85.602837
H   10.100134   60.514366   37.596237
H   63.060669   74.447273   13.449619
H    1.300984   82.411011   73.028343
H    1.976746   42.602646    8.182740
H   25.032692   39.225716   77.992661
H   13.564185   11.304422   55.060150
H    0.041885   95.221329   86.892914
H   24.796093   94.789520   92.889793
H   74.600555   66.959236   87.534714
H   15.050217   57.275497   73.050949
H   53.068558   13.810724   48.063988
H   95.767059   55.703583   69.067352
H   74.180527   98.105865    9.922047
H    0.750463   33.160751   55.766537
H    5.199970   29.406988   97.128647
H   94.086769   20.265278   95.235588
H   27.241741   50.654209   87.445175
H   82.022102   44.898880   73.351692
H    7.138202   13.126156   23.195282
H   93.185684   77.961533   79.346230
H   70.307411   41.443802   93.000389
H   97.963409   63.055931   53.121056
H   33.651421    7.299608   29.628286
H   36.443333   63.744312   88.186806
H   32.886887   40.621346   91.462173
H   53.275944   77.104668   23.667801
H   25.627483   64.906517   81.343529
H   27.239449   81.914261   19.856752
H   56.127716   97.146622   76.455894
H   62.777359   80.576645   87.250969
H   96.804962   23.099030   19.232853
H   44.841496   79.441383   52.319492
H   94.666870   39.798100    6.432904
H   49.862541   52.443890   23.531519
H   19.381748   65.250793   20.857416
H   56.794125   97.717880   83.422440
H   55.496277    9.471212   48.061737
H   34.360298   81.989952   88.737984
H   46.612980   10.575020   52.351746
H   88.066925   41.659355   21.733572
H   14.986019   79.626831   25.746513
H   46.571022   45.074127   70.308723
H   49.596382   29.435720   84.854416
H    5.972281    2.080964   54.347855
H   26.214828    2.818232    1.078745
H   86.126663   38.460350   57.601097
H   73.991570   58.646553   48.621952
H    3.280268   91.578568   80.978676
H   86.537750   16.455011   39.636478
H   46.234367   35.449875   45.738350
H   48.711903   29.245832   52.081894
H   25.395721   95.894028   57.352745
H   26.738811   67.192085   20.958059
H   90.904541   48.275841   33.737850
H   90.303963   91.910370   46.820934
H   93.949059   85.844673   41.248672
H   52.162003   35.776886   37.001751
H   31.840271   47.753071   80.767410
H    6.478474   19.281994   42.956032
H   54.978554   21.653709   84.423492
H   59.081558   26.785574    6.962696
H   11.459873   20.507946   12.731043
H   41.145439   42.946957   54.731586
H   60.577698   44.441639   27.295631
H   69.274361   65.728683   66.979973
H   98.830360    0.973835   63.235054
H   38.028275   24.330616   28.555162
H   12.206037   67.703712   64.839821
H    5.348550   32.085186   73.904396
H   86.960167    8.922486   55.673576
H   46.410889   73.300087   76.293076
H   33.799053   62.489944   55.825203
H   68.482697   27.301155   84.473648
H   22.589893   74.057991   31.838779
H   30.824678   80.850990   97.377586
H   15.841850    9.908980   92.552353
H   61.905766   40.895576   46.918953
H   87.774597    0.439279   79.439438
H   30.686300    9.999829   43.313377
H   13.536272   42.836517   22.865824
H   22.434223   25.674040   87.448051
H    3.840656   15.751794    2.664614
H   84.785431   59.634644   44.426613
H   14.677093    3.331610   54.189987
H   73.850090   37.941650   65.702057
H   19.096598   78.142624   79.388573
H   35.337120   79.712563   12.709141
H   56.435547   23.636021   40.477428
