100
TIME:    5.121, STEP:  5121
H   71.010170   52.399513   94.457596
H   59.045509   82.363480    1.000492
H   67.781662   42.328842   63.235210
H   82.336151   21.665417   59.464951
H   49.302719   83.228241   26.852898
H   48.610966   95.660133   85.896080
H   84.578362    7.131253   90.921875
H   17.385796   31.633488   38.000881
H   27.743980   93.930023   77.738838
H   34.895882   89.913338    8.221075
H   23.912079   72.297150   46.468586
H   60.388748   80.380013   28.410250
H   17.285385   51.913597   16.173584
H    1.520010   89.291512   46.951088
H   42.790489   12.599236    4.609681
H   95.618851   63.827652    7.953118
H   12.306835   20.685589   39.573181
H   10.577004   45.646992   22.005445
H   25.029728   93.184494   33.156094
H   54.546402   97.065224   64.994118
H   60.389320   46.406090   18.251911
H   53.335602   50.882187   83.177841
H   17.371300   52.973457   85.831879
H   43.243412   98.090302   26.742748
H   46.427277   80.038971   74.359596
H   23.201914   75.269028    8.862627
H   20.488943   29.602566    1.573502
H    0.447300   95.470688   36.045746
H   22.522591   13.709343   15.099884
H   97.355835   64.094933   90.493752
H   17.598289   81.265259    4.221718
H   89.100380   11.025863   25.187401
H   31.073257   93.806023   59.137077
H   94.475418    4.413686   56.011299
H   53.477417   71.811722   36.561073
H   17.797426   86.527107    3.326723
H   70.968842   16.993538   11.979999
H   52.330425   65.239891   83.816185
H   28.913242   69.839409   48.049118
H   80.852119   32.772179   40.944073
H   85.267944   31.897055   62.994244
H   71.374168   41.691261   43.386593
H   55.351009   94.209061   71.368233
H   52.349537   98.598572   81.440109
H   12.447256   29.843307   94.327904
H   12.019220   60.592060    3.965246
H   81.742477    3.334691   74.623085
H   56.512905   48.114609   85.436409
H   14.723503    8.329258   40.195457
H   33.280460    8.676245   25.494904
H   43.153919   75.243866    7.410468
H   54.003197   88.548874   37.878159
H   15.096133   51.702026    5.448801
H   58.098373   23.649063   57.791771
H   33.053802    7.384500   43.904507
H   99.973740    7.146928   18.295883
H   20.901497   41.782570   43.037224
H   44.735001   93.272118   81.649643
H   94.159676   55.144028   18.340675
H   21.086124   21.404888   17.957161
H   82.737030   40.421619   15.123055
H   17.161928   80.276535   63.647324
H   21.724627   57.835373   82.308105
H   94.689186   69.659409   88.103928
H   35.583389   51.838924   72.465401
H   86.754967   87.693077   48.976814
H   76.700928   25.409401   14.303974
H   26.623421   10.412414   11.016013
H   12.131075   81.823936   39.052780
H   34.137672    5.712951   90.949768
H   59.417885   46.967453    0.716463
H   51.716682   81.568832   31.557053
H   73.092453   64.998848   30.445816
H   17.476460   25.311253   98.881706
H    9.075994   35.940815   89.604218
H   46.723297   35.780632   51.350452
H   31.908220   82.692329   81.615929
H   72.574219   15.870346   97.252434
H    7.084652   38.476734   74.819832
H   48.381714   30.052425   79.742554
H   11.081871   82.260757   86.059410
H   25.560219   77.671585   58.562767
H   41.789932   92.760559   17.641462
H    2.467013   50.374313   95.693298
H    2.978432   28.563202   51.328850
H   33.431759   97.156456   97.400848
H    9.174749   31.014511   67.732559
H   38.385559   95.295395   42.487320
H   61.958847    9.043488   86.307625
H   13.573127   98.582077    7.281782
H   33.595116   49.950184   41.607952
H   57.201038   80.627625   31.103422
H   13.719323   81.177223   15.019367
H   42.192238   23.858774   72.100334
H   68.052086   91.021263   33.760197
H   16.895233   93.509491    2.942488
H   56.121330   61.564358   42.675751
H   25.662642   59.839935   74.086906
H   64.760468   58.924915   16.099159
H   57.294750   47.219692    4.417928
