100
TIME:    6.622, STEP:  6622
H   69.503494   14.751600   93.083389
H   17.592270   63.702145   95.643349
H   93.593842   50.316902   45.611012
H   82.588089   59.824127   77.189209
H   35.858398    3.539891   86.156189
H   25.329617   94.033989   34.544865
H    5.911923    8.486002    8.302179
H   99.410149   61.488018    0.183064
H   90.846474   49.615128   83.255836
H   93.889076   11.466501   66.995827
H   84.292725   32.692921    1.885321
H    3.095798   55.617222   21.567692
H   21.503220   61.144863   67.026299
H   27.198772   84.665016   61.178371
H   61.036812   78.523155   32.450603
H   35.268280   32.544777   83.356934
H   91.605171   19.965160   76.215126
H   42.675694   72.612579   69.971230
H   48.404400   56.156090   12.235553
H   14.110374   65.183632   67.189171
H   71.317856   96.975677   77.509270
H   97.237930   52.874786   55.353806
H   97.328957   40.765923   42.887924
H    3.778308   16.046602   15.265837
H   92.744209   61.003326   85.444862
H   16.359510   30.896515   67.713112
H   91.056404   67.210281   31.358351
H   73.796005   65.532280   85.661057
H   55.159996   49.891460   44.146088
H   54.909748   26.945549    9.818836
H   76.673866   15.863429   85.467445
H   83.874451   69.550293   86.232368
H   36.801746   83.985588   94.359009
H   57.897224   66.855942   92.777649
H   16.153046   58.291725   27.938883
H   48.276577    4.091873   98.606880
H   14.935311   62.023560   30.252905
H   90.293434   37.767727   89.738014
H   65.557678   37.133293    2.591665
H   39.475071   92.253632   59.040638
H   82.685104   83.399757   98.357155
H   42.147949   67.571320   18.025257
H   68.276215    3.211313   79.787743
H   56.505398   23.792746   28.200026
H   82.245964   70.620041   22.772848
H   92.647301   89.221359   10.063826
H   93.469040   84.964493   89.029350
H   56.593067   63.574432   78.309769
H   58.595047   84.015907   80.320511
H   64.769287   31.524389   20.521357
H   43.046894   30.332514   23.232574
H   26.954128   49.267662   39.343239
H   46.233280   60.405334   18.272810
H   23.342400   99.156082   24.026463
H   13.541313   38.925362   56.673176
H    1.843452    5.568022   67.198288
H   16.058657   98.471169   85.794685
H   32.967438   51.521492   42.988632
H   12.540650   18.566463    3.112398
H   22.035568   36.777325   75.265160
H   77.421318   70.616592   98.093460
H   63.890205   66.305435   95.728424
H   23.627626   55.409828   79.380035
H   97.760117   77.835938   47.354023
H   95.160706   31.955727   12.246921
H   94.547668   13.073774   37.728165
H   56.273178   77.300812   86.771866
H   22.939095   96.255959   82.772491
H   86.941505   73.971649   44.913021
H   64.542198   81.209892   87.789093
H   11.753643   44.840561   82.714180
H   27.953238   31.753845   41.453804
H   75.224258   90.755768   91.959045
H   84.432762   30.313370    9.697134
H   81.443718   38.082287    3.390161
H   82.206306   31.980465   50.352196
H   68.201752   52.650509    8.183771
H   43.093929   17.723513   80.148384
H   79.061455   34.067822   91.562248
H   74.776047   48.288246   50.429924
H   40.455055   97.789291   75.770630
H   38.206520   87.415451   33.008236
H   36.731689   17.861242   60.590103
H    5.733129   78.817894   58.598835
H   29.893229   34.675385    5.823778
H   98.882614   52.292580    1.634861
H    9.423204   21.879448   39.305946
H   62.528984   75.175415   26.917999
H   93.107529   25.469618   74.031380
H   80.865250   36.829357   60.935287
H   95.022148   31.001183   73.306320
H   68.259842   93.517380   59.698372
H    9.936433   26.212002   31.094004
H   87.257637   14.921872   73.310303
H   42.102486   56.572044   68.252777
H   40.871658   34.235382   25.414230
H   36.978783   47.702606   56.352142
H   25.495333   14.116174   45.944267
H   93.256401   65.397606   90.374901
H   50.528103    8.704090   59.823086
