100
TIME:    4.634, STEP:  4634
H    3.944306   97.060005   94.903458
H   72.495674   55.974762   70.295410
H   59.408928    7.292841   68.950172
H   82.254410   41.730156   86.157845
H   53.664734   44.193039   40.057114
H   56.164608   96.187737   37.666668
H   10.102987   74.248245   52.837841
H   55.663033   89.502045   82.715553
H   39.715370   40.753250    8.392601
H   48.204857   82.920738   89.151611
H   69.211639   52.701527   93.379288
H   78.974480   55.969078   63.075813
H   48.361954   81.362770   64.564453
H   25.632381   90.792580    9.888827
H   36.867958   56.099731   28.019669
H   15.200920    6.422451   48.378845
H   51.468452   88.474014   95.239647
H    0.163076   69.341667   38.887646
H   17.444504   72.756592    7.500451
H   67.666924    7.407869   31.836863
H   89.288597   94.887482   31.469856
H    6.646439   50.235687   24.650345
H   23.873451   56.934196   99.765060
H   88.492661   92.259216   62.913017
H   63.845612   18.659836   70.762978
H   25.421934   89.662933   54.657291
H   62.484901   49.848186   91.912636
H   41.538258   72.739166   19.946421
H   11.933015   69.524742   38.119850
H   78.681656   76.148064   51.778084
H   98.431221   37.595341   42.751610
H   58.350780   24.480087   70.271461
H   96.769508   29.436377   15.264272
H   73.898895   49.044250   76.528374
H   65.582565    8.625263    6.907547
H   75.463455   48.383625    4.858743
H   24.260237   34.829575   73.606430
H   72.458931   74.149696   49.449245
H   49.471188   80.450920   95.243591
H   26.722769   78.364098    2.627390
H   18.550602   15.188382   51.520733
H   15.143345   19.833921   20.510164
H   51.156193   91.288666   36.192673
H   83.447006   90.429596   33.823097
H   54.689808   49.056236   52.654682
H   18.302746   51.303272    1.985572
H   77.937790   76.850304   69.948967
H   56.486897   43.098663   55.303581
H    0.489132   48.661175   59.623886
H   23.066509    1.263792   59.555031
H   43.191074   22.260853    2.276554
H   30.335497   33.738506   69.849487
H    4.994439   48.878235   33.733273
H   69.376732   31.596550   36.301231
H   71.828918   64.701424   39.761707
H   99.364395    7.659204   34.874512
H   90.027603   55.834648   96.719307
H   80.998428   39.263817   94.193222
H   55.749481   34.567505   55.729225
H   53.221615   83.972748   31.808601
H   52.017151   63.067684   53.091927
H   34.444908   84.809464   85.680389
H   88.662727   91.066940   15.703178
H   61.249245   67.006531    1.324100
H   16.253077   90.734100   27.113619
H   16.671288   11.902922   20.181570
H   15.773962    8.572953   90.791183
H   60.263695   82.560318   87.734596
H   87.859818   16.816635   69.597351
H   24.271524   81.219727   91.975250
H   74.881859   80.102417    6.558754
H   91.872833   97.731323   95.901299
H    4.845488   89.090248   42.933662
H   28.196346   56.131855   27.816795
H   85.594856   35.246014   52.686855
H   35.208916    4.568172   84.119858
H   87.692184   24.901699   73.003365
H   49.694073   47.715084   70.359535
H   83.729866   39.907207   69.387749
H   72.265045   56.577351   21.697868
H    1.552195   77.222519   56.952068
H   89.019630   74.491104   99.284813
H   10.984598   84.616150   71.263306
H   68.960632    8.700218   40.172356
H   26.692286   59.026711   98.538185
H   44.641468   79.269966   63.582230
H   76.649101   66.423370   44.510590
H   30.546167   34.284828   47.551567
H   51.852646   36.157982   90.290657
H   56.631489   18.619591   89.871857
H   13.665092   23.654892   31.323404
H   21.167349   44.000717   21.825464
H   82.501961   66.562416   77.358871
H   95.121017   94.318832   39.265408
H   76.471443   34.644279   22.570629
H   76.670975   12.740236   28.097008
H   94.777550   33.616253   70.683304
H   23.875479   55.693420   81.882057
H   87.960144   56.825649   56.891800
H   27.046740   59.714970   51.332874
