100
TIME:    1.307, STEP:  1307
H   28.934904    2.162832   97.949417
H   64.913658   75.609505   60.445400
H    2.221224   67.934898    7.993545
H   81.695984   78.801292   68.523552
H   83.464371   77.519341   30.266212
H    7.749004   99.792122    8.181885
H   84.470268   49.593334   92.661873
H   17.158676    1.674824   88.189491
H   21.499443   60.630676   17.815718
H   39.122276   35.149940   58.872772
H   78.681076   18.832218   13.852964
H    5.954136   89.204002   99.895897
H   60.122826   82.631966   95.224052
H   90.366920    1.047560   56.704357
H   96.397911   53.278690   87.946060
H   48.972946   97.416008   24.548325
H   18.986282   68.430984   92.354942
H   29.074287   31.141403   54.235153
H   65.617165   33.183815   32.220226
H   57.303429   78.058212    5.319261
H   86.717407   26.101311   21.770405
H   87.671440   45.825027    7.965928
H   68.293694   83.992470   94.954498
H   97.607033   52.357151   10.004557
H   82.838493   82.517860   46.205650
H   40.666042   88.664673   66.666748
H   49.375153   88.146744   25.902205
H   22.260818   17.446041    9.974528
H   39.590515   67.673248   95.390434
H   51.109158   58.491714   87.291649
H   67.515419   39.249863    5.987704
H   48.281895   16.402679   78.268547
H   62.422268   72.856026   15.541837
H   33.325691   53.943947   16.689596
H   48.284294   60.120979    4.316810
H   86.193115   87.155411   16.147131
H    5.157699   56.671242   11.451715
H    9.971516   35.032337   14.673445
H   91.962173   52.607399   16.856720
H   40.088631   89.826164   40.866238
H   45.921638    1.029608   73.136887
H   14.155479   70.518150   64.205170
H   22.498793   71.337631   95.879646
H   95.899071   34.675186    8.525920
H   43.282776   80.322556   67.953690
H   61.225391   87.845802   88.478706
H   49.880787   96.245117   38.791451
H   56.309216    8.840200   49.447674
H    3.237320   24.203728   92.336929
H   53.301762   50.642773   92.252037
H   43.444904   43.461403   67.197662
H   68.650703   42.459301   88.259476
H   35.991646   29.587158   26.960743
H   46.424213   85.880547   89.491470
H   36.709877   73.084198   11.496925
H   95.201584   11.158352   48.133438
H   79.109360   51.834129   80.293968
H   28.736099   53.457802   79.889847
H   93.357780   93.991928   11.143856
H   72.769302   28.248205   26.435387
H   42.147625   17.790894   12.492384
H   52.523163   15.779938   36.217407
H   62.887177   18.025852   43.892921
H   32.788277   48.904243   91.654411
H   84.199623   56.457005   17.279203
H   21.054054   77.298256   23.465391
H   82.705276   93.549683   30.165028
H   90.082222   92.285324   28.684759
H   22.042366   55.873642   78.260231
H   56.861633   13.880972   98.980957
H   80.528770    6.472254   46.472019
H   66.197952    8.148527   52.314751
H   21.773083   53.655445   28.235134
H    1.424058   66.671432   25.529701
H   25.188000   30.503405    0.476878
H   56.559681   91.339012    7.985671
H   85.622246   13.264669   14.160929
H   93.385559   65.260643   86.620636
H   24.200296   49.673679   32.262062
H   35.427872   37.772041    8.321979
H   36.458942   42.803173   58.104809
H   39.388523   52.763260   77.486771
H    0.495733   29.071257   54.385136
H   40.080181   24.003275   44.049995
H   88.688980   67.131821   21.053337
H   21.209705   57.064777   32.545433
H   54.446297    8.323387   85.865829
H   76.995285    0.653195   82.156456
H   82.806099   21.400454   17.506542
H   50.782089   55.503410   70.938072
H   77.510353   44.005543   61.063183
H   74.991722   93.805336   58.424332
H   69.143654   66.791183   20.028021
H   73.554848   92.511757   14.943364
H   33.995960   32.656601   46.119469
H    1.874410   44.118584   99.940475
H   58.858749   42.686398   62.022354
H   11.664006   27.365997   35.124580
H   46.449486   42.484257   35.569706
H   20.410538   45.132252   71.803047
