100
TIME:    8.413, STEP:  8413
H   48.385002   50.508842   91.443680
H   68.129929   60.753788    8.571177
H   24.382669   79.169067   24.584148
H   82.888702   86.034233   79.018135
H   19.811384   47.096302   37.593460
H   97.553345   92.093666   11.913234
H   12.045348   29.423929   48.360722
H   58.641083   16.433832   35.740181
H   46.820274   77.416977   70.519897
H   44.971077   37.183216   37.123695
H   17.698257    4.757999   29.367098
H   34.740791   45.390713   94.082970
H    7.280565   52.757950   89.046326
H   38.519325   79.144661   97.472237
H   82.790291   18.542191   46.319000
H   63.254807   75.897179   34.688751
H   47.583656   38.425014   39.256935
H   80.970520   85.462502    7.891037
H   76.299149   31.289051    6.592468
H   65.852249   27.154741   89.128792
H   65.037376   18.676273   28.901316
H   68.942848   55.252365    2.833624
H   73.416527   26.202559   91.643799
H   37.368797   37.472137   82.251740
H   28.686581   18.966949   98.671852
H    7.939306   78.088242   99.181015
H   36.616409   92.758072   66.897934
H   22.677473   49.130100   44.862152
H   94.103096   12.385359   59.484856
H   23.584644   82.617508   52.197754
H   47.160824   76.465202   43.769295
H   96.959373   20.070530   20.430489
H   62.958523   52.947044   55.706436
H   33.571991    2.721519   17.325014
H   71.579338   22.687828   36.906315
H    3.965680   44.372917   92.977211
H   86.715080   96.431892   71.376854
H   16.267910    4.988350   16.123848
H   89.956078   98.113792   29.029819
H   70.782135   24.586187   99.951477
H   60.282471   44.851746   40.551113
H   91.211990   74.594742    9.459737
H   83.689484   13.954889    9.153767
H   42.145123   53.856941    3.314124
H   26.890682   99.960915   76.034233
H   69.527397   23.377621   17.340036
H    7.465888   82.365364    6.222823
H   56.701107   82.021164   89.126335
H   10.952415   35.685295    8.875162
H    2.372639   58.784679   95.295189
H   42.923916   57.422752   42.113388
H   14.000340   83.075180   21.775467
H   83.379234   70.790161   14.258181
H   81.865448   69.941925    3.059515
H   70.939247   95.879593   71.901718
H    4.074141    3.684064    6.228424
H   29.599663   46.792992   56.133781
H   99.606873   82.383018   96.854515
H   53.791088   94.247261   65.621109
H    3.848533   74.439911   24.324852
H   90.398758   87.327881   58.451298
H    0.324094   49.635056   14.692537
H   45.219524   33.195465   56.565796
H   20.745029   87.592209   98.724182
H   66.251526   88.911621   79.034821
H   84.525124   24.038048   43.626575
H   12.577597   39.221378   73.241623
H   99.222137   98.685173   68.392654
H   76.205658   45.281807   32.584099
H    0.888410   71.206253   83.999771
H   54.879955   22.980007   61.233986
H   80.476883   72.255272   72.714706
H   58.447937    2.170780   46.041706
H   45.004337   16.961491    3.282256
H   67.733841   40.702908   39.180882
H   24.545015   46.767715   29.841558
H   30.863064   97.633179   39.948021
H   27.235662    0.618995   79.062744
H   64.945244   28.807087   11.545334
H   86.944267   50.723717   96.133842
H   75.513664   16.318705   82.816452
H   72.600235   99.030060   83.172203
H   50.015961   47.813267   31.154728
H   28.950684   32.078224   95.020226
H   42.687469   22.637394   32.206917
H   57.669147   18.076572   26.007614
H   29.040102   91.658516   24.707603
H   91.333214   31.857170    8.348289
H   30.279472   25.749613   59.383308
H   22.516329   63.144753   24.961973
H   68.317314   27.708744   11.129294
H    0.775705   28.217094   93.829933
H   24.742878   79.949425   69.594788
H   60.348694   23.579823   94.074501
H   11.134701   96.143692    9.408699
H   88.800873   63.511719   32.906700
H   94.818291   50.483467   53.349464
H   22.038279    2.735907    9.989454
H    7.937173   73.131569   40.360844
H   61.773617   62.739529   87.289062
