100
TIME:    6.139, STEP:  6139
H    2.167238   59.044579   93.525589
H   30.930119   37.527607   65.190529
H   85.287857   15.568244   51.282223
H   82.507019   79.723114    3.662586
H   40.184586   64.825348   99.252670
H   32.821217   94.557259   86.712151
H   31.225685   75.872948   70.530876
H   37.373001   19.703831   44.531681
H    2.719572   96.053467   13.658305
H    7.082342    4.530645   48.084415
H   29.220200   13.258375   48.409599
H   21.531830   31.406788   55.948158
H   52.324539   90.352516   15.019707
H   51.114037   86.153755   24.420521
H   55.170296   21.667084   55.677143
H   54.688217   74.789589   23.450504
H   30.445351   88.018089   32.245735
H   32.346645   96.115494   86.715858
H   40.883320   35.892288   86.788620
H   27.122101   75.442665   34.304253
H   99.979767   45.060925   90.620491
H   50.932251   52.233597   96.485748
H    3.778081   44.694130   56.706665
H   48.656734   10.268526   51.138447
H   10.018903   99.305481   81.877785
H   18.561296   45.175880   13.133778
H   32.705742   87.286148   21.773672
H   14.551089   42.987465   69.697647
H   44.657753    6.070353   66.978333
H   36.388950   38.899681   71.421555
H   57.665421   72.550911   23.680794
H   53.377415   82.897354   30.946053
H    2.779389   19.323805   50.846558
H   37.489708   11.119967   13.125162
H   28.172844   94.857796   98.550018
H    6.290647   66.261559    0.125160
H   68.608192   79.711548   92.194618
H   10.257364   46.608036   55.652691
H   85.943085   47.657646   49.397392
H   84.968063   37.470623   21.037790
H   15.694546   66.824638   86.977882
H   82.852432   65.677231   93.366722
H   64.119537    0.313819   44.900200
H   87.347931   15.685751   80.974449
H   24.143318   89.678848   81.440903
H   98.882317   80.008865    8.101564
H   89.695602   58.697830   84.393623
H   56.567272   58.599686   48.424442
H   44.477821   24.018089   99.585678
H   54.631580   24.170977   54.293732
H   43.080059   76.962540   18.141750
H    3.476957   94.085953   71.048958
H   36.213772   57.604736   46.325794
H   34.526367    7.037089    2.714278
H   51.998833   96.597137   52.564404
H    1.241876    6.076091   83.640747
H   85.437782   12.408584   39.857506
H   68.933014   97.134392   55.429184
H   74.446060   98.156319   40.191109
H   53.907112   99.651093   89.002831
H   46.953754   93.080338   35.751019
H   81.032814   70.801132   17.582886
H   90.837105   88.368446   12.500793
H   64.595139   75.204849   60.468929
H   75.991348   70.533340   67.267342
H   24.217793   37.085106    9.169211
H   95.024612   60.601154   63.453201
H   56.303062   68.633217   59.682301
H   62.870930    8.676933   75.206024
H   54.758324   56.917313   88.806152
H   27.092190   77.703369   88.506996
H   67.777542   47.783585    6.090232
H    6.716572   14.647026    4.341858
H   95.067665   60.880527   38.394463
H   58.155460   37.393192   66.775894
H   70.790184    1.024539   82.852325
H   24.336014   94.458107   99.619194
H   20.401714   49.306793   53.474915
H   55.898846   35.486546   86.174782
H   98.463211   74.599129   92.040916
H   31.003038   92.792435   46.902363
H    1.961961   84.283066   73.413597
H    6.179403    9.784436   14.590307
H   72.502144   37.486961    2.714977
H   53.411049   64.888573   52.645157
H    9.999554   34.549316   68.093979
H   77.164650   56.997475   16.274710
H   54.761009   13.824327   31.925911
H   83.084335   52.362282   77.981697
H   23.568346   56.702549   43.671074
H   75.255821    4.920667   63.106243
H   32.522732   57.190674   50.496933
H   78.975266   11.718907   93.742874
H   40.577938   85.619209   40.742294
H   50.452690   99.834549   57.153568
H    0.977792   53.308929   50.361664
H   75.317497   19.984854   84.129654
H   26.427637   90.216492   55.639496
H   16.265045   63.313114   30.831596
H   20.528536   21.098579    6.350620
