100
TIME:    8.976, STEP:  8976
H   10.312091   98.879829   90.928238
H   52.580765   91.259811   44.070820
H   34.060093   19.673191   17.975754
H   82.983200   62.839348   48.158142
H   14.766497   92.223236   22.329151
H   88.825195   91.483727   67.670105
H   82.537468   67.441673   92.388054
H   14.390396   65.138901   84.047310
H   32.980659   23.286640   35.079762
H   29.593390   45.267063   59.167427
H   65.329376   27.410133   75.135124
H   13.251160   73.611153   54.007362
H   71.379898   18.682945   33.097481
H   10.643949   77.409340   40.318066
H   89.628487   68.252266   19.245415
H   40.618317   26.655296   87.954163
H    2.310409   75.662743   90.509041
H   93.010452   58.066765   88.374100
H   85.070251   54.909176   36.251881
H   50.684849   15.198637   27.460382
H   31.628151   62.629074   13.620611
H   22.918207   55.999756   54.888962
H   65.899666   21.625864   75.536240
H   85.058258   44.207245   40.438389
H    8.551734   74.319260    2.828407
H    5.283707   61.491013   46.200733
H   88.068535   69.357010   78.065842
H   75.172302   75.409042   63.473900
H    6.345201   63.464901   32.870872
H   45.172234   68.683395   96.955292
H   69.319496   26.951321   99.226547
H   32.507313    4.516398   68.310799
H    2.613507   11.755703    6.425923
H   57.359634   51.125824   93.607521
H   57.567909   80.060860   71.160828
H   52.905659   88.470886   91.207527
H   40.714165   75.814217   15.738858
H   92.997917   94.686440   55.851532
H   66.194206   85.846275   74.471420
H   17.754923   71.880928   44.247856
H   21.805304   64.167969   53.815151
H   43.765564   76.802551   38.201603
H   88.534637   17.332531   49.818020
H    6.197373   63.311005   58.359028
H   78.053833   77.753960   24.212214
H   62.260696   34.114269   19.627310
H   11.867612   12.983553   11.629417
H   56.735470   87.819885   23.961155
H   27.407898   89.058205   86.417847
H   14.190218   67.355583   55.931728
H   42.885258    3.068260   48.049561
H   41.363049   30.832466   84.817390
H   95.053993   74.054626   81.561050
H   68.824768   60.756950   27.901669
H   26.112701   45.218857   76.686737
H    4.775356    3.091843   87.062561
H   65.289871   30.547981    9.679780
H   57.684265   29.215075   82.353416
H   98.196404   18.036707   22.397650
H   66.694099   17.712933    8.311790
H   25.913794   61.143902   14.557089
H   80.342125   44.394730   89.219292
H   83.441650   94.776512   17.959198
H   59.406841   90.659088   83.441330
H   88.595932   43.945988   31.464888
H   49.938972   96.050163   76.915535
H   67.407181   58.683605    0.422618
H   60.332047   30.885067   95.307312
H    4.263417    4.828209   97.272827
H   12.322890   99.486832   82.805664
H   36.998417   84.672432   54.481697
H   34.115654   53.561913   13.983417
H   21.739883   74.319939   31.605038
H   32.612255   81.328407   69.830238
H   94.854675   41.531910   81.868057
H   37.856300   82.850700   91.958633
H   81.994949   48.905407   49.934708
H   53.682514   63.807854   10.159804
H   91.945808   27.153378   17.828669
H   59.333763   20.054087   47.630760
H   86.535530   22.143198   16.466698
H   14.848261    2.683865   36.071953
H   85.626091   57.228672   84.771904
H   67.682426   80.254860   43.598011
H   15.274551   87.417831   77.631165
H   44.710079   38.757233   65.103882
H   66.641594   50.723839   51.553535
H    0.387780   86.806313    2.510789
H   41.963139   94.403404   54.778694
H   72.740524   39.979935   45.086433
H   91.357567   58.106930   23.018822
H   42.432003   70.560455    4.558026
H   60.832401   96.838737   13.132442
H   14.761229   57.736439   32.035412
H    1.399648   45.714733   22.344690
H   35.302414   41.278992    3.826736
H   50.129478   82.793083   20.970390
H   20.951555   30.593304   98.685997
H   81.117180   75.562737   93.202843
H   96.746078   48.294270   33.053532
