100
TIME:    5.219, STEP:  5219
H   64.382729   43.412392   94.367874
H   56.338905   87.673508    7.179770
H   69.466934   49.379471   62.084530
H   82.352600   17.627567   54.092865
H   48.424942   91.083374   24.196014
H   47.090931   95.553963   95.600975
H   79.441795   13.748800   98.585602
H    9.683189   40.111439   29.002544
H   25.334953   84.507751   71.570473
H   32.217690   91.320473   12.058920
H   14.796356   76.240417   37.029118
H   56.648102   85.292274   21.434763
H   11.031784   45.987480    6.435776
H   96.667625   88.989449   54.409203
H   43.982292    3.845623   99.898804
H   91.678574   55.256241   99.818085
H    4.426136   27.167233   48.494507
H   12.672566   40.879032   18.608358
H   26.556118   97.295242   38.318829
H   51.906342   94.983681   71.666420
H   54.573860   36.649605   15.592037
H   62.730957   51.012283   74.832230
H   16.062859   52.176430   83.028076
H   34.137409   99.262665   19.464451
H   42.922150   72.267578   75.083351
H   22.755175   72.372513   99.647141
H   12.038282   25.528828    3.518126
H   92.177986    0.044998   39.285446
H   24.653481   22.600435   10.467628
H    1.113611   61.669456   98.284584
H   21.455200   90.053497   96.468269
H   95.288185    8.318324   16.115044
H   37.976543   86.635765   67.965691
H   98.616074   95.432610   51.882607
H   51.041473   64.403702   42.528313
H   26.316126   94.202797    3.018492
H   80.368683   13.404297   19.701946
H   48.280239   63.446720   90.732231
H   24.776325   67.704033   38.552078
H   71.621254   23.597733   48.654903
H   78.570221   35.259377   65.303078
H   62.566490   46.089867   47.990063
H   56.195141   94.796738   78.447273
H   46.092197    0.243476   91.022385
H    3.946501   25.977051    2.714008
H   10.754705   62.461262    4.363662
H   82.508102    8.664456   75.563667
H   56.518139   49.123978   91.500099
H   17.587868    0.213115   36.285835
H   35.335835   10.167868   18.640915
H   43.146442   65.782715    8.443576
H   58.765923   79.455582   31.444366
H   17.128994   52.270264   99.757072
H   55.829163   22.049774   62.116356
H   25.250683   15.972920   44.738171
H    0.095940    7.043841   14.959732
H   27.113976   38.954842   52.357811
H   37.437637   84.017326   79.125473
H    1.889028   59.284683   10.817139
H   14.619394   28.937771   15.169807
H   88.918854   35.864506    7.482320
H   13.684092   79.364365   59.212830
H   28.377863   51.148117   75.587952
H    1.418407   70.193253   85.443680
H   39.473572   44.011456   81.591591
H   80.734642   82.821190   54.771339
H   68.838318   28.797516   19.035671
H   19.853920   16.017401   15.700980
H   17.015524   74.782280   32.906097
H   36.122765   10.642179   90.743408
H   56.306038   40.299637   99.540932
H   43.636497   78.316422   38.732521
H   66.702774   60.151482   27.932861
H   15.319401   19.108868   93.058769
H   13.800775   36.080631   97.033173
H   49.040359   42.061897   44.756657
H   40.806362   74.198677   83.349052
H   77.178436    9.462349    2.664444
H   11.783994   38.188877   75.912941
H   43.576004   24.714539   71.299744
H   12.999485   83.274612   91.916740
H   32.913658   78.311600   50.368187
H   47.988953   94.399475   26.974760
H    9.209223   58.760300   86.742065
H   98.206581   22.432968   41.828819
H   31.176006    0.755869    4.206326
H   15.719946   23.889114   72.405563
H   39.963165   87.449234   41.468231
H   63.992538    3.587105   85.506111
H    4.908442   94.550583   10.784872
H   37.605675   55.241520   43.677532
H   64.452049   87.998260   32.970383
H   20.001268   84.117104   22.597858
H   51.663857   29.803785   78.708336
H   66.357841   82.243492   36.012211
H   24.989624   89.639496   97.880585
H   48.342461   67.188408   37.039734
H   26.022276   60.674347   72.518272
H   60.091949   59.347355    7.890373
H   63.381618   44.705242   94.977448
