100
TIME:    9.088, STEP:  9088
H    2.738095   88.608833   90.825699
H   49.487503   97.328415   51.133198
H   35.985264   27.730625   16.661118
H   83.001999   58.225090   42.018616
H   13.762896    1.200521   19.292713
H   87.088867   91.362389   78.761414
H   76.667107   75.003929    1.146603
H    5.587418   74.828842   73.764351
H   30.227486   12.517972   28.029589
H   26.533880   46.875217   63.552681
H   54.911407   31.916298   64.346306
H    8.976135   79.225166   46.034950
H   64.238052   11.904129   21.967335
H    5.098508   77.064125   48.841625
H   90.988838   58.247871   13.859550
H   36.115143   16.859398   78.657288
H   93.304024   83.071190    0.704843
H   95.406448   52.616814   84.491287
H   86.815125   59.608028   42.152149
H   47.667637   12.820158   35.085869
H   24.981911   51.478806   10.580620
H   33.655758   56.148438   45.351120
H   64.404305   20.715403   72.331894
H   74.652252   45.547089   32.119907
H    4.546088   65.437668    3.655182
H    4.755417   58.189255   35.660572
H   78.411064   64.701736   80.287521
H   65.721619   80.636826   67.175682
H    8.780644   73.626518   27.576797
H   49.466911   65.911423    5.858872
H   73.726967   36.994381   90.365463
H   39.579090    1.422175   57.942390
H   10.502819    3.561492   16.515768
H   62.091812   40.861664   88.889015
H   54.780556   71.580879   77.974548
H   62.641743   97.243103   90.855476
H   51.455986   71.712654   24.564047
H   88.368279   92.637367   63.754730
H   61.466694   83.405846   63.617661
H    7.205790   61.396095   53.060234
H   14.151190   68.011475   56.453823
H   34.326843   77.241760   43.919010
H   89.498505   18.004589   57.907497
H   99.046303   65.191200   69.309761
H   68.338257   73.336235   33.796703
H   60.815750   36.250500   20.082327
H   12.743253   19.074800   12.705009
H   56.742306   88.973450   30.891087
H   30.681458   79.781837   81.950562
H   16.541090   69.061150   48.100307
H   42.877567   92.255394   49.230469
H   46.806164   20.439705   77.465340
H   97.376503   74.704041   75.056656
H   66.230530   58.929192   32.843697
H   17.194794   55.034409   77.638641
H    4.914852    2.974030   83.249817
H   72.390701   27.316292   20.332006
H   49.344421   18.637743   79.468651
H    7.029865   22.769312   13.799322
H   59.303288   26.321941    5.126244
H   32.979221   55.935772    5.824986
H   76.367027   43.352249   84.152153
H   91.044922   87.133934   10.279022
H   67.097778   91.269196   80.401047
H   93.041000   35.000309   41.894840
H   43.058601   90.482292   83.537849
H   58.421341   62.555309    5.830201
H   52.595474   37.290413    0.661560
H    9.845673   96.780624   90.248901
H   14.597548    5.112221   82.568115
H   33.441166   77.052071   53.138435
H   24.892790   49.843163   22.192898
H   14.437347   68.779411   28.733089
H   30.147045   74.239540   63.175453
H    0.249921   41.696827   90.360001
H   40.504372   90.028435   84.422012
H   92.166824   39.211193   51.921402
H   58.943623   56.484856   16.345474
H   97.317146   26.824398   19.078791
H   53.841087   13.952658   37.981834
H   88.728157   23.301889   23.160789
H   23.252590    3.410931   26.702204
H   92.709831   59.101719   95.437675
H   75.388237   89.838844   33.368885
H    9.821182   80.410995   66.773987
H   42.132076   42.871613   72.881470
H   74.121819   42.580528   56.894112
H    2.188913   77.844398    1.349573
H   44.287357   88.167320   53.862679
H   62.838566   35.371658   49.089729
H   95.941063   64.154190   25.384056
H   50.718868   78.984039    6.691800
H   68.011841    0.198645   21.793573
H   25.585508   64.531357   39.587414
H   99.463120   35.682140   24.917994
H   44.553146   36.856140   98.041687
H   41.239342   89.220573   14.528851
H   20.735369   36.134792   96.436974
H   75.781731   76.046379   83.822227
H    3.703015   45.420612   22.263859
