100
TIME:    7.330, STEP:  7330
H   21.624197   49.824623   92.435196
H   98.040665    2.064683   40.285290
H    5.766830    1.254038   37.297932
H   82.706924   30.655300   38.380466
H   29.515848   60.289165   66.958862
H   14.348344   93.266960    4.660248
H   68.803391   56.295452   63.668697
H   43.762749   22.740353   35.177666
H   73.442482   81.543716   38.689472
H   74.551308   21.632936   94.716896
H   18.436279   61.181019   33.687057
H   76.076340   91.105804   71.171730
H   76.339912   18.310459   96.671654
H   92.143822   82.482765   15.055813
H   69.636177   15.281090   98.403839
H    6.799425   70.620361   24.587061
H   34.672188   66.792053   40.667171
H   57.816410   38.161102   45.430397
H   59.429089   85.855576   49.533680
H   95.035873   50.150524   15.393045
H   29.304123   26.492577   58.291943
H   65.114578   53.814667   95.061096
H   87.876137   35.007805   22.630632
H   37.995171   24.516329   62.685333
H   67.421455    4.853577   90.673622
H   13.045742   10.013748    1.096567
H   30.004473   37.777489   45.407940
H   14.057933   98.579338    9.062404
H   70.554588   14.127106   10.679426
H   82.058243    9.422215   66.102562
H    4.535999   79.350555   29.452736
H   28.577816   49.989529   20.689217
H   86.672371   32.184135   58.141243
H   87.811348    1.972027   62.949951
H   98.532051    4.686176   71.015854
H    9.822237   59.545929   96.381416
H   82.841141   36.095825   86.040741
H   61.028053   24.809261   39.698738
H   35.670841   21.708094   33.980484
H   72.788704   25.973005   14.743253
H   34.297470    7.694668   15.036179
H   82.481407   70.347748   54.168484
H   74.369232    7.458393   30.927357
H   11.299171   35.676292   97.424431
H   20.832951   42.687031   83.357735
H   83.507774    2.724934   12.940184
H   99.000290   23.468708   95.824577
H   56.635006   70.866608   22.116375
H   79.292610   25.379574   52.078606
H   79.634521   42.300724   71.019539
H   42.998280   61.979385   30.694901
H   61.366650   83.569351   92.867767
H   60.920261   64.510559   77.154518
H    6.948509   87.607437   55.268692
H   57.169540    0.970514   62.695972
H    2.725265    4.823275   43.096298
H   60.940647   78.042274   53.131477
H   80.248947   84.659126   24.751719
H   68.376762   48.485989   48.761330
H   75.313713   91.195862   55.127953
H   22.082693   37.692688   42.891060
H   38.761909   59.715469   63.696815
H   71.695229    7.096673   30.830353
H   46.378101   81.692688   28.129688
H   23.262314   75.410034   78.179802
H   51.053894   77.877373   79.590652
H   99.468384    1.780662   20.954798
H   74.032463   36.748466   16.618988
H   22.227737   23.099274    0.506825
H   78.893257   16.812235   86.296783
H   89.271233   96.668549   74.222847
H   69.658958    8.214715   93.332649
H   29.061914   55.739628   73.809631
H   68.843712   85.503540   67.629883
H   15.564870   39.108219   57.067204
H   98.940498   77.357811    2.714035
H   32.503620   91.370064   20.739817
H   76.357056   71.430580   19.247454
H   13.014314   31.988201   99.459404
H   40.054489    9.719401   89.435219
H   54.311745    5.114572   18.086975
H   91.334145   92.006821   73.775795
H   81.514336   29.701574   28.015228
H   54.440914   39.403439   93.935387
H   95.419601   90.385948   37.191002
H   82.591354   78.298370   50.800705
H   56.708912   70.401756   73.066017
H   73.915581   18.519621   19.577209
H    7.800986   86.049889   68.240852
H   18.268023    7.698467   86.246582
H   23.996540   69.229195   88.257980
H   20.644670   46.765152   73.189873
H   55.320591   47.456539   85.844734
H   55.681877   57.875450   21.049402
H   29.861961   93.152390   84.522430
H   99.349503    6.278699   88.844734
H   80.781578   88.333527   15.633721
H   24.128725   49.146999   31.732576
H   59.528740   68.454918   31.073009
H   94.506371   90.534653   91.617859
