100
TIME:    0.449, STEP:   449
H   86.958656   80.845772   98.734940
H   88.780449   29.088779    6.323197
H   87.478882    6.207038   18.067871
H   81.551971   14.151110   15.551682
H   91.149399    8.746850   53.530769
H   21.053806    0.724969   23.211271
H   29.438843   91.655800   25.565157
H   84.595779   27.446293   66.969292
H   42.590721   43.123932   71.825127
H   62.570122   22.832767   25.272051
H   58.490143   84.309113   96.499763
H   38.703876   46.196648   60.968636
H   14.701867   34.542389   80.501671
H   32.849979    3.692897   91.408684
H   85.963554   29.917025   29.188917
H   83.470474   72.465157   95.769028
H   87.967628   11.690079   14.235442
H   10.739354   72.865738   83.980270
H   52.255943   97.187943   87.017960
H   80.495369   96.117950   46.819710
H   37.632248   11.517517   45.056038
H    5.400840   44.692566   81.024361
H   79.749229   90.970528   19.503613
H   77.324554   42.066807   73.728912
H   13.524992   50.565441   39.874161
H   44.600201   14.230887   47.088364
H   23.360624   23.812241    8.876005
H   94.656029   77.396988   81.616196
H   20.934357   89.829002   35.947144
H   18.210230   79.727005   19.082737
H   33.764133   62.306664   73.881798
H   94.107605   40.105820   57.697899
H    1.984106   35.630791   38.246422
H   97.073112   32.574432   52.835335
H   69.611229   24.979355   52.068497
H   11.593770   19.756987   19.099386
H   22.864288   88.092140   43.844677
H   45.431587   50.736240   54.125111
H   30.534470   70.923164   99.091583
H   20.902996   70.150078   73.361259
H    4.558361   71.585747   52.919186
H   91.267601   32.009018   23.894781
H   15.108533   66.192459   33.905106
H   50.687469   20.296244   24.632740
H   17.708401   14.176557   94.529236
H   72.216988   71.644829   85.079048
H   40.821095   49.962765   31.459906
H   56.263393    0.006195   96.359543
H   78.153740   95.263657   26.562784
H   35.306751   37.583462   52.260330
H   43.510365   26.295771   58.151066
H   26.952948   22.074764   44.586533
H   18.193018   24.612183   76.793587
H   66.290634   99.875938   51.629292
H    5.014057   97.866165    4.216114
H   94.128036   12.060066   77.341782
H   24.716660   76.591179   98.690971
H   92.625427   34.484383    1.989368
H   25.688728   57.740067   77.014130
H   29.389351   62.300629   50.838951
H   88.023666   57.688889   79.387756
H   82.975250   23.766129   75.039993
H    4.687727   76.534966    2.754791
H   73.872139   44.236931   14.949354
H   50.144562   24.982952   37.375587
H   73.762611   19.951984   72.734245
H   51.544731   63.883144   88.739548
H   49.350334   43.216354   87.667397
H   79.280876   17.524040   32.071964
H   39.481949   70.728172    0.786585
H    7.774026   64.854683   56.762363
H   36.945034   36.624168   89.495277
H   77.715973   96.098244   50.236309
H   20.308113   20.965757   76.523201
H   83.819626   29.282572   35.435596
H   36.273563   36.349152   65.716354
H    7.720890   87.628288   98.978821
H   53.075165   21.361374   39.237118
H   83.074501   52.187336   22.694965
H   77.505692   84.501213   82.239471
H   19.668400   33.926769    6.824597
H   75.012566   47.159866   49.234550
H   46.205219   14.751695   72.664917
H   81.057159   50.583103   22.418953
H   30.467562   20.798180    4.227004
H   40.959049   25.546360   72.963142
H   97.142403   70.706963   44.953197
H   63.183182   69.346001   91.072136
H   65.000923   69.172585   24.527149
H   26.638508   90.811066   40.263424
H   42.397495   97.676895   42.943798
H   11.508293   29.274805   42.078918
H   14.092686   41.084251   53.650780
H   90.625069   40.467934   57.091366
H   48.829243    9.510288   26.403786
H   31.007172   78.000786   44.257591
H   26.962637   93.447731   11.366537
H    8.513734   20.060638   48.851585
H   87.322838   38.785755    7.441823
H   67.125900   67.171761   54.441025
