100
TIME:    4.152, STEP:  4152
H   36.538971   41.261719   95.344742
H   85.807747   29.854418   39.902725
H   51.123817   72.615623   74.605965
H   82.173508   61.587944   12.577264
H   57.981964    5.558612   53.126480
H   63.640697   96.709923   89.932457
H   35.364208   41.701015   15.144814
H   93.547279   47.802120   26.970913
H   51.563850   87.095444   38.733364
H   61.377190   75.999931   70.279358
H   14.046097   33.307087   39.807835
H   97.368675   31.808771   97.385658
H   79.119461   10.510246   12.458572
H   49.498009   92.278236   73.209793
H   31.005920   99.154358   51.190449
H   34.582245   48.580009   88.388611
H   90.227913   56.592091   51.361290
H   89.862511   92.788750   55.599407
H    9.937157   52.536339   82.105530
H   80.655388   17.643824   99.020134
H   17.891144   42.873013   44.550331
H   60.436630   49.595825   65.697128
H   30.308846   60.854271   13.556098
H   33.275734   86.478394   98.708633
H   81.085114   56.886078   67.203285
H   27.619162    3.909962   99.983772
H    4.046850   69.885086   82.351479
H   82.207916   50.241028    4.013075
H    1.451652   25.793743   60.904823
H   60.199203   88.077446   13.460796
H   79.463356   94.373726   80.885918
H   27.916883   37.795837   14.892586
H   62.819920   64.702202   71.841904
H   53.533630   93.216797   96.834801
H   77.563431   45.060814   77.555649
H   33.563526   10.631632    6.375197
H   78.029404   52.480942   35.626575
H   92.382912   82.968025   15.437252
H   69.817017   90.953484   41.952324
H   72.120750   23.486683   64.706238
H   51.491714   98.650772   40.165020
H   58.463028   98.201019   97.866348
H   47.004444   88.398254    1.377711
H   14.225824   82.354095   86.695190
H   96.500664   68.072693   11.408404
H   24.521175   42.109852    0.026138
H   74.172165   50.638023   65.322838
H   56.461155   38.134216   25.480125
H   86.397568   88.581268   78.850006
H   12.957423   93.930489   93.268654
H   43.227848   68.794655   97.194839
H    6.912500   78.465149    1.489722
H   94.997841   46.083435   61.729076
H   80.541222   39.462440   15.032802
H   10.205782   22.459429   35.661442
H   98.761307    8.166372   51.282928
H   59.469219   69.742455   50.877235
H   16.889153   84.782280    6.608583
H   17.736525   14.200716   92.731728
H   85.029602   46.925243   45.517830
H   21.612043   85.484764   90.673561
H   51.552025   89.295853    7.488256
H   55.940601   23.958221   48.755363
H   28.149469   64.380890   14.411854
H   97.121666   29.230278   82.226555
H   46.281136   35.864510   91.682449
H   54.445938   91.908325   67.520798
H   93.558586   54.994766   64.692207
H   63.839226   51.450089   99.825317
H   14.506273   56.977448   92.990204
H   90.187065   12.897552   12.341301
H   31.616062   13.728446   60.612919
H   36.273819   12.932308   55.293297
H   38.809231   86.632896   56.456139
H   62.354153   34.558346   16.147726
H   23.812754   73.677940   16.552937
H   43.929817   66.679733   64.479225
H   27.048840   79.232033   43.739944
H   60.614471   41.322994   64.011436
H   95.903168   82.827446   63.222710
H   92.122910   72.236008   28.143812
H   52.855255   71.343277   39.590210
H   80.494331   76.562500   25.357494
H   35.801254   67.454659   84.195816
H   50.161667   89.174385   45.262527
H   55.736088   61.566612   30.110825
H   44.457420    1.468695   21.527037
H   22.788759   72.875130   52.563820
H   41.850204   62.995415   94.232796
H   99.245468   38.451637   72.639709
H   93.939514   97.628258   21.144449
H   85.502380    7.753109   12.641171
H   51.604713   52.098679   40.085064
H   48.534893   65.083755    6.767094
H   84.804359   77.819084   11.495860
H   36.859787   31.772614   52.992790
H   33.035736    5.955424   98.403305
H   22.106665   51.589478   89.597176
H   10.921471   54.747936   97.262596
H   97.108559   72.084358   97.764328
