100
TIME:    3.275, STEP:  3275
H   95.847809   21.687035   96.147659
H   10.169849   82.310486   84.586044
H   36.049042    9.520881   84.896690
H   82.026306   97.719231   60.650715
H   65.837173   35.263195   76.906219
H   77.236946   97.660042    3.079725
H   81.327065   82.481483   46.562202
H   62.477753   71.930344    7.493704
H   73.122185   71.415466   93.937004
H   85.344276   63.407509   35.935783
H   95.622513   98.019470   24.285234
H   30.843086   87.849640   59.810860
H   34.939835   63.565323   99.621086
H   92.922462   94.981392    6.468205
H   20.337154   77.491226   93.345650
H   69.843704   25.285736   61.187843
H   60.751137   98.587387   71.524521
H   71.127769   35.437523   86.005066
H   96.277077   15.742648   35.901699
H    4.286705   36.267399   39.309837
H   69.933578   30.180786   68.351364
H   76.357788   48.431595   40.381760
H   42.018059   67.986855   38.649567
H   14.758560   75.960175   63.844852
H   12.451718   26.435349   60.726418
H   31.641939   30.025904   82.205132
H   79.672363    6.338304   64.954933
H   56.206142    9.305618   75.027061
H   82.382263   46.225388    2.361969
H   26.570885    9.783715   43.741364
H   44.947590   15.731380   50.271370
H   72.542732   62.023872   96.080925
H    1.043383   28.867283   92.834816
H   16.477589   73.588570   33.779633
H   99.362640   11.355321   24.153244
H   57.302845   41.753544    9.382222
H   93.914314   84.597641   66.522514
H   28.630074   99.012993   53.548183
H    6.832549   10.061155   26.940142
H   54.724415    5.588290   95.704201
H   11.428972   68.554749   19.503279
H   37.282829   58.843803   56.663300
H   39.450329   83.139145   38.030354
H   70.228256   67.660706    0.946461
H   72.572868    2.678025   36.361874
H   35.835621   25.382404   96.466499
H   67.320602    2.942769   56.899948
H   56.414318   29.102468   71.216377
H   60.758583   61.212959   13.832383
H   94.565910   80.588676   54.605671
H   43.294758   53.463547   87.947906
H   64.291504   59.844521   59.065517
H   76.811760   40.998291   12.661968
H    0.854755   53.774445   76.333466
H   80.032700   45.597000   28.202703
H   97.663986    9.089727   81.138077
H    3.873508   95.047737   67.467186
H   82.193108   67.604263   29.199978
H   48.568382   77.145264   60.060741
H   42.902069   79.515671   70.461800
H   66.290199   26.270054   59.049969
H   82.678459   97.458847   47.172104
H   96.399757   83.802788    8.893906
H   67.929008   59.609688   38.225048
H   62.314869   99.274635    0.555172
H    0.156896   79.462929   39.827362
H   24.809387   61.585339   25.179739
H   54.139153    4.837431   22.766539
H   20.127060   14.465706   54.831379
H   96.737854   12.865156   94.836914
H   18.036125   72.568687   22.862865
H    3.928934   42.834335   96.401611
H   93.454926   56.309925   77.777580
H   58.119381   42.131149    8.565559
H   20.072912   33.307133   49.665440
H    3.078272   17.469042   75.562866
H   64.304756   42.691620   48.969532
H   85.845779   36.576214   95.305054
H   18.561666   43.899021   54.222542
H   38.913246   30.589825   38.776962
H   74.967239   63.163036   75.727997
H   87.051178   65.615799   12.923910
H   25.008032   61.922638   41.827396
H   75.464203   92.407562   64.295135
H   92.863495   44.031940   30.277809
H   75.918823   29.349823   69.209122
H   85.884560   65.233742   79.707901
H    8.674139   43.089859   61.683624
H   23.649208   11.825741    1.405983
H   76.785004   74.534134   41.290627
H   58.049103   50.271450    2.623787
H   20.609381   41.803955   95.928688
H   95.388565   25.783056   72.265221
H   63.769978   11.885185   47.634552
H   99.966118   56.375904   91.343590
H   64.423157   66.405098   98.290718
H    2.648605   55.626080   48.841499
H   18.888304   44.122345    3.633574
H   52.699944   50.967533   70.721992
H   42.633236   94.592812   82.248749
