100
TIME:    6.695, STEP:  6695
H   64.566727    8.057251   93.016556
H   15.576405   67.657616    0.245962
H   94.849197   55.568901   44.753872
H   82.600342   56.816620   73.188110
H   35.204544    9.391111   84.176804
H   24.197346   93.954903   41.774578
H    2.086054   13.415390   14.010874
H   93.672493   67.803558   93.480766
H   89.051994   42.596497   78.661034
H   91.895210   12.514812   69.854073
H   77.502441   35.630253   94.853401
H    0.309425   59.276356   16.371666
H   16.844925   56.729954   59.772636
H   23.584473   84.440010   66.733635
H   61.923470   72.002434   28.940174
H   32.333176   26.159950   77.297363
H   85.734962   24.793324   82.860603
H   44.236813   69.060379   67.440468
H   49.541126   59.218735   16.081264
H   12.143799   63.633228   72.159355
H   66.985931   89.708649   75.527657
H    4.236511   52.971695   49.137177
H   96.354301   40.172218   40.799377
H   96.995644   16.919893    9.844109
H   90.133247   55.213875   85.983986
H   16.026735   28.738350   60.848457
H   84.761803   64.176041   32.806965
H   67.636185   68.939674   88.073746
H   56.747292   56.514660   40.695251
H   57.708958   25.138817   15.621933
H   79.546593   22.409489   79.691917
H   88.483734   67.533035   79.474388
H   41.944027   78.644478    0.935426
H   60.981590   60.165909   89.702194
H   14.336161   52.764595   32.380524
H   54.622417    9.809665   98.377419
H   21.936954   59.350220   36.005039
H   87.275902   36.431614   94.889763
H   62.476376   35.542656   95.517426
H   32.599575   85.419907   64.784348
H   77.695984   85.904900    0.076999
H   35.995926   67.857590   21.752060
H   68.904449    3.649247   85.060905
H   51.844318   25.018026   35.337433
H   75.913490   67.739517   29.019831
H   91.704948   90.613724   10.360399
H   94.039352   88.934402   89.729988
H   56.596966   64.326309   82.826599
H   60.728706   77.969704   77.408798
H   66.302002   32.635616   15.417211
H   43.041882   23.284643   24.001995
H   30.502708   42.493530   34.551277
H   47.747616   60.828613   14.033060
H   21.652069   97.965332   27.247559
H    7.728752   45.322998   57.294170
H    1.934374    5.491233   64.713196
H   20.686319   96.364799   92.737572
H   27.531878   44.627617   41.108383
H   18.297882   21.651386   97.508354
H   17.218544   42.388554   73.188866
H   82.026146   67.221451   92.401474
H   61.299294   65.625961   92.425735
H   28.583609   50.428505   74.374207
H    2.772819   78.233597   45.371853
H   98.057938   26.125340   19.045279
H   90.063141    9.444855   42.044495
H   50.416336   79.824890   90.296219
H   17.896507    0.430848   86.262314
H   90.579475   68.726334   40.334370
H   66.021446   84.881279   87.635376
H    9.435495   39.873718   81.838661
H   21.934046   29.331131   46.798813
H   70.464600   87.144531   90.087708
H   82.825417   25.693226    5.359876
H   84.963615   38.186436    8.924194
H   83.931725   36.659367   45.440491
H   74.831635   46.331959    9.478392
H   46.523602   12.950209   84.179558
H   82.562416   33.853397   92.376503
H   71.195999   44.311653   44.140892
H   41.883621   98.544510   80.133743
H   43.684082   87.888855   26.901093
H   41.349327   19.082067   67.542175
H   10.755387   85.064598   51.931637
H   26.338522   30.108986   98.747322
H   97.202866   54.974274    6.704305
H   14.298708   16.571754   42.786858
H   63.703026   69.334167   26.161110
H   94.622421   21.405306   73.434334
H   74.411362   33.825748   63.544579
H   98.009605   34.942757   74.847946
H   73.661102   99.007751   61.089066
H   14.615752   28.402470   36.739204
H   94.313026   19.350672   78.232590
H   40.840446   50.032944   69.930298
H   46.901154   31.352694   21.643707
H   31.184359   51.891953   52.153885
H   25.354425   17.728245   44.478943
H   89.778831   65.712837   84.260750
H   55.062199    6.830847   52.790531
