100
TIME:    6.340, STEP:  6340
H   88.574295   40.611809   93.341568
H   25.379585   48.420116   77.863441
H   88.744385   30.028461   48.922153
H   82.540756   71.442169   92.645508
H   38.384247   80.936386   93.802582
H   29.703594   94.339500    6.617359
H   20.691250   89.444496   86.249336
H   21.574799   37.092281   26.075909
H   97.778572   76.728195    1.005715
H    1.591619    7.416899   55.954380
H   10.523666   21.345968   29.048939
H   13.859688   41.481937   41.640526
H   39.498276   78.197929   95.047295
H   41.161568   85.534218   39.717266
H   57.611641    3.712770   46.011440
H   46.606628   57.209450    6.765366
H   14.282132    1.313493   50.543556
H   36.645069   86.334778   79.747597
H   44.013210   44.325050   97.379028
H   21.707283   71.173378   47.989281
H   88.052139   25.050175   85.164268
H   70.202316   52.500427   79.368729
H    1.094170   43.059410   50.956009
H   29.980221   12.673067   36.209743
H    2.830215   83.366196   83.362221
H   17.645025   39.233536   94.232368
H   15.373234   78.931595   25.762327
H   97.591476   52.369469   76.340805
H   49.028252   24.306274   57.476715
H   44.096363   33.924980   87.400711
H   65.576485   90.575768    7.778316
H   66.068726   77.342987   12.338463
H   16.937862    4.618183   68.954224
H   45.982277   92.699631    4.657820
H   23.171204   79.643105   10.780919
H   23.762869   82.004555   99.493294
H   87.887459   72.350708    8.032517
H    1.949943   42.929150   69.836739
H   77.459717   43.277946   29.918852
H   66.035370   18.653488   36.852329
H    1.958061   73.722359   91.713356
H   65.913300   66.465454    3.628646
H   65.849335    1.519590   59.417923
H   74.512466   19.059469    0.627860
H    6.708096   81.747543   98.640732
H   96.287621   83.842636    8.918158
H   91.265915   69.628677   86.322777
H   56.578007   60.669922   60.861195
H   50.352692    7.371849   91.568497
H   58.850262   27.231092   40.239128
H   43.066257   57.557526   20.260292
H   13.246023   75.435287   57.854652
H   40.383381   58.770203   34.651196
H   29.872169    3.757298   11.583323
H   35.995140   14.211940   54.274265
H    1.492222    5.864658   76.798233
H   98.181236    6.608472   58.974220
H   53.965973   78.152626   50.252060
H   90.299469    6.649787   24.760948
H   40.643799   15.101071   83.285912
H   59.632801   83.732071   20.080097
H   73.898933   68.930252    8.487966
H    4.482550   74.652748   98.717621
H   78.396713   76.299774   55.011173
H   83.968658   54.479664   85.985344
H   11.870750   27.092766   21.054121
H   78.898239   67.550262   73.157242
H   42.418678   80.128395   69.291260
H   72.887978   94.234375   62.600414
H   58.829788   67.027275   88.382904
H   20.708961   64.027542   86.096321
H   51.204571   41.112823   20.806545
H   93.610886    4.705292   99.188049
H   90.641960   48.160076   26.451857
H   67.846306   37.679958   82.012833
H   75.540993   13.906879   69.326782
H   42.590420   77.058006    3.182375
H   29.845058   36.163094   64.575905
H   65.537193   34.896145   88.416771
H   88.605820   63.649879   74.724541
H   34.936485   94.871872   58.915867
H   17.045862   85.586685   56.599316
H   18.893692   13.145503   33.733063
H   86.331322   54.686790   84.356010
H   43.624199   52.315445   33.160400
H    5.373068   41.933159   82.051971
H   90.588982   42.383141   25.859137
H   57.993645   97.740234   29.841873
H   87.255478   41.170738   76.337776
H    5.797065   48.432339   50.855560
H   83.481560   15.774017   67.350998
H   47.394695   72.307999   54.326103
H   91.859802   17.750195    9.286510
H   60.002888   97.813667   54.295441
H   46.977760   81.831161   61.772495
H   17.579636   45.371490   39.979813
H   59.362877   31.519136   72.570068
H   26.039660    0.162813   51.604836
H    6.690166   64.179863   13.995209
H   33.012829   15.940624   86.988121
