100
TIME:    0.890, STEP:   890
H   57.135170   40.403725   98.331192
H   76.513252   53.000523   34.141109
H   95.055878   37.933758   12.889809
H   81.625992   95.981163   91.379143
H   87.199402   44.094948   41.573112
H   14.215332    0.245007   66.886101
H    6.326300   21.434256   60.051929
H   49.934052   65.597214   26.477020
H   31.750099    0.723419   44.065063
H   50.518257   29.163193   42.542351
H   17.469391    2.053754   54.019585
H   21.870968   68.301826   29.577394
H   86.649353    7.861147   36.670242
H   11.014158    2.333193   24.969318
H   91.326668   90.526276    7.990170
H   65.739227   33.891178   59.162582
H   52.511864   40.854111   54.387428
H   20.163025   51.420013   68.691696
H   59.123016   15.688983   10.252260
H   68.557899   86.872131   76.905632
H   11.462677   67.615875   33.088287
H   47.686878   45.274635   43.473995
H   73.861244   87.383904    6.885427
H   36.350906   47.355900   40.975891
H   97.753166   15.590809   43.129181
H   42.578098    1.091253    5.753823
H   85.333282    5.479994   17.627234
H   57.444557   97.981384   96.191483
H   30.523361   29.839449   15.101677
H   35.119152   68.812363   54.140865
H   51.111820    1.853794   38.984550
H   21.952154   27.922737   16.872292
H   33.047871    3.366065   77.975182
H   15.706767   92.159615   34.256218
H   58.649483   91.642860   78.922943
H   49.937225   54.399120   17.581968
H   65.160667   71.942238   78.593880
H   27.205750   42.664654   85.246254
H   10.708557   61.509117   56.825371
H   79.364967   28.864153    8.057028
H   74.419113   86.719551   63.312321
H   51.633049   51.802742   44.613758
H   18.906927   68.837006   65.757607
H   22.526644   27.686506   67.752693
H   79.454124   96.777054   32.267632
H   66.584709   79.935112   86.808434
H   45.477650   73.752213   35.228218
H   56.286945    4.546823   23.646055
H   91.046745   58.738449    8.970830
H   44.555935   44.295765   21.417381
H   43.476719   83.719566   62.800892
H   48.384819   81.153961   15.634468
H   27.341265   27.169250   51.180847
H   56.079937   92.682503   71.089920
H   69.907822   36.526859    7.958349
H   94.679825   11.596598   62.329102
H   52.672813   63.866402   40.633919
H   59.787292   92.837883   90.630447
H   60.468216   76.373016   43.157825
H    0.288881   96.195404   38.295860
H   15.842360   37.181877   45.003784
H   67.323303   19.661362   55.086632
H   34.600838   46.462502   72.500587
H    4.153471   46.635864    2.974874
H   67.649681   89.761223   78.445625
H   46.671150   98.028633   98.809608
H   16.162233   79.131317   10.031174
H   18.887581   68.437119    8.749747
H    1.258362   85.836609    4.412245
H   48.414864   92.907372   99.859039
H   93.769997   34.846241   51.473270
H    0.583099   21.988319   21.782835
H   48.962418   74.282417   38.928013
H   10.601817   93.058441   50.313255
H    5.083153   29.910063   68.865898
H   46.700344   64.614769   36.044079
H   47.761539   49.406853    6.782333
H   73.794144   92.525734   63.593189
H    4.211275   50.895359   27.612274
H   55.878281   60.484467   44.246826
H   28.298504   38.489117   33.181271
H    8.100105   50.039932   12.356388
H   74.108757   22.111818   14.667847
H   11.393108   88.320045   82.138405
H    8.993513   93.213409   61.476936
H   30.808163   41.746059    3.587468
H   26.595816   38.642677   65.981720
H   70.282410   34.038277   86.489601
H   74.152534   44.618004   20.918655
H   87.648819   72.662613   56.029766
H   60.445011   21.489626   52.256908
H   44.137943   62.442528   50.480232
H   42.387596   54.296890   87.767448
H   33.249718   67.219170   86.826591
H   41.205143   70.009583   36.536919
H   67.431931   60.585808   21.479500
H   91.958633   18.755476   86.004181
H   10.132930   23.815491   41.796097
H   66.314507   40.686733   70.499519
H   94.513443   55.844219   11.966066
