100
TIME:    8.617, STEP:  8617
H   34.589104   31.800966   91.256912
H   62.495773   71.807770   21.434017
H   27.889231   93.845886   22.189632
H   82.922943   77.629692   67.836983
H   17.983397   63.447803   32.062027
H   94.390747   91.872658   32.116043
H    1.353951   43.199593   64.313789
H   42.607086   34.081814   17.008949
H   41.805565   57.803268   57.678860
H   39.399178   40.112354   45.111122
H   98.722687   12.966123    9.716814
H   26.954140   55.616238   79.561790
H   94.272064   40.411057   68.772705
H   28.418589   78.515877   12.997013
H   85.268074    0.319919   36.509033
H   55.052597   58.054649   17.754501
H   31.179237   51.917416   57.827858
H   85.331543   75.535805    0.819780
H   79.477310   39.847675   17.339413
H   60.356091   22.822512    3.018039
H   52.931725   98.367035   23.364435
H   88.500526   55.523178   85.461151
H   70.692833   24.544218   85.807312
H   18.414003   39.912567   67.101776
H   21.390972    2.788208    0.178358
H    6.977064   72.074326   79.984421
H   19.025034   84.278824   70.944565
H    5.464745   58.652134   51.606018
H   98.538826   30.893324   49.841423
H   31.406315   77.568558   68.415405
H   55.190273   94.759087   27.629463
H    9.839928   14.434710    1.545239
H   77.327286   38.021202   74.084366
H   42.191315   84.026123    8.731371
H   66.502373    7.242159   49.318577
H   21.698484   60.352440   92.335976
H    6.281787   88.961189   87.451317
H    7.836510    1.254872   30.518959
H   81.346092   93.668724    9.261250
H   51.567871    5.488210   16.001814
H   46.340271   51.850861   45.357265
H   74.020035   75.394730   19.874363
H   85.445099   15.178606   23.888355
H   29.119640   57.282570   23.259350
H    9.195232   91.914345   93.490776
H   66.893974   27.267834   18.168818
H    9.060870   93.459358    8.181761
H   56.713558   84.122299    1.748670
H   16.914970   18.790611    0.737192
H    6.654675   61.889690   81.032372
H   42.909908   37.728111   44.264328
H   23.915285   64.146286    8.383676
H   87.609520   71.973022    2.410112
H   77.140228   66.614349   12.060935
H   54.696693   13.757255   73.635544
H    4.328222    3.469476   99.283768
H   42.531761   40.906700   75.535820
H   84.416443   63.117943   91.600121
H   69.881111    2.866902   49.959251
H   90.386040   90.119049   18.522606
H    3.267148   77.840088   42.546482
H   93.083733   47.736252    5.461939
H   59.069897   19.274343   42.576904
H   34.753529   88.703476   93.186523
H   74.347900   72.619263   98.032196
H   71.993019   13.896649   55.688648
H   96.210007   46.273411   83.090500
H   85.130524   10.352509   78.145035
H   86.372040   30.623665   19.788963
H    5.031659   81.453568   83.567093
H   48.400677    9.099092   58.787331
H   63.677170   65.481834   87.668564
H   45.146973   92.079308   40.810658
H   40.514133    4.050463   91.161201
H   77.560928   41.003292   54.648350
H   29.368288   59.843002   16.114920
H   49.390457   79.977417   43.566643
H   36.818783   87.280678   90.331055
H   74.728752   28.207874   13.821953
H   76.939751   39.611046   78.559013
H   79.507378   18.429178   95.009262
H   87.908951    0.353358   66.104759
H   62.920044   51.224888   50.583225
H   42.984879   49.534767   76.387047
H   32.754547    9.876312   12.432043
H   52.973499   25.569843   40.173935
H   42.664799   76.826057   34.435081
H   94.614098   15.532906    6.232984
H   34.513187   14.391754   57.714851
H    4.479779   54.751106   32.254440
H   76.665825   38.723362   15.437400
H   15.869638   43.559860   97.717812
H   37.819721   86.069176   85.370422
H   80.064835   35.956287    7.829685
H    7.607150   77.871597   14.096176
H    5.650485   55.455811   22.369896
H   78.625542   62.190681   41.617348
H   21.644510   12.829827    5.893797
H   98.219200   74.012489   23.273167
H   74.445526   57.505367   67.638000
