100
TIME:    9.854, STEP:  9854
H   50.935944   18.363125   90.124405
H   28.332310   38.838367   99.430534
H   49.152058   82.840416    7.668591
H   83.130569   26.666368    0.030416
H    6.898981   62.598541   98.524330
H   75.213623   90.532524   54.621033
H   36.522030   26.727343   61.048809
H   45.381332   41.097782    3.431482
H   11.397743   38.870102   79.813835
H    5.609022   57.873844   93.544685
H   83.659882   62.738159   90.559685
H   79.742073   17.620251   91.510963
H   15.392910   65.538048   45.844185
H   67.170395   74.703102    7.133053
H    0.292715   89.824982   77.020287
H    5.314181   49.862106   15.072547
H   31.707039   33.736160   70.436844
H   11.789214   15.343067   57.936958
H   98.748810   91.739777   82.517227
H   27.032063   96.552460   87.238762
H   79.525894   75.221748   89.787781
H    7.092926   57.165314   80.119171
H   54.177101   14.488142   50.416458
H    3.478806   54.710663   75.231308
H   77.149155    4.688217    9.309387
H    1.142003   35.607590   63.577549
H   12.357162   32.857273   95.482224
H    1.090324   16.391117   92.492393
H   25.437008   43.123722   91.368729
H   78.839439   46.953110   66.753334
H    3.871477    5.683506   29.761978
H   87.944992   80.255127   87.029961
H   64.461342   47.516571   85.523094
H   94.456528   70.662407   56.617805
H   35.717049   13.583870   24.578199
H   29.228319   57.242840   88.447701
H   24.926147   43.660896   84.922073
H   56.706203   78.623177   17.810966
H   29.131199   66.715050   89.386940
H   35.056988   89.684113   13.326467
H   61.800278   94.298309   74.500450
H   69.772240   80.249893   83.015862
H   96.090668   22.600986   13.237898
H   50.141079   78.048256   44.204525
H    1.873149   43.083347   99.334808
H   50.933350   50.860790   23.194319
H   18.732677   60.736599   20.060484
H   56.789059   96.863007   78.286865
H   53.070267   16.342503   51.395111
H   32.618256   80.726006   94.540993
H   46.150715   18.553207   52.195969
H   84.033188   49.361450   27.182283
H   13.264399   79.145569   30.567051
H   48.492905   46.428627   66.646065
H   56.204872   22.162012   84.148987
H    5.868904    2.168272   57.173370
H   20.953239    5.213223   93.184761
H   92.307083   46.298592   59.738914
H   67.445137   55.139038   54.994244
H    8.757317   85.199310   83.339394
H   81.302124   20.314924   46.107555
H   49.180199   36.222427   49.494095
H   43.070370   34.898918   57.768387
H   19.696247   95.441895   59.606445
H   23.444382   73.820839   13.228475
H   96.003387   52.402031   28.830240
H   96.963112   89.040527   42.813793
H   99.682411   81.097908   37.280792
H   48.025047   41.740738   42.207615
H   30.154587   43.584454   80.943451
H    9.114447   24.929859   43.951485
H   61.813110   24.409569   78.339325
H   64.493225   30.891184    9.091015
H   13.286770   25.760986   17.662397
H   37.147163   42.824741   48.438450
H   58.615288   39.121792   32.880440
H   61.736275   72.912155   65.508324
H   94.930870    6.400756   58.651031
H   34.048363   24.574413   27.628733
H   16.276333   72.225044   71.990364
H    3.723815   31.226511   68.943596
H   80.731621    8.383599   62.617050
H   41.160698   71.912025   68.388977
H   28.088913   55.387527   63.405716
H   72.524033   32.493088   92.519592
H   24.500378   71.009575   26.075031
H   25.281298   86.885765   93.419838
H   14.507139   16.550570   93.412292
H   60.183353   45.516960   47.597786
H   95.112579    3.854340   76.472076
H   27.289602    5.518234   41.560570
H    7.395113   36.594040   21.284624
H   17.113743   23.183508   81.029533
H   96.287453   10.751416   96.348763
H   86.220352   67.069252   42.519295
H    7.821637    6.609029   58.477020
H   80.438316   33.178421   70.475418
H   19.256807   74.035431   81.055260
H   39.291069   79.354149   19.661480
H   51.280342   25.765923   48.473347
