100
TIME:    7.573, STEP:  7573
H    5.191469   27.540417   92.212723
H   91.329391   15.232881   55.608128
H    9.943888   18.735809   34.444714
H   82.747711   20.643082   25.060371
H   27.338392   79.766685   60.369949
H   10.579741   93.003700   28.725353
H   56.067959   72.703720   82.671616
H   24.663429   43.762211   12.865529
H   67.469078   58.180328   23.393112
H   67.914192   25.122057    4.231678
H   95.833023   70.958710   10.280169
H   66.802917    3.286094   53.874443
H   60.844658    3.602739   72.522194
H   80.111732   81.733772   33.548893
H   72.587654   93.575150   86.716583
H   97.028610   49.366760    4.415461
H   15.131609   82.865738   62.788418
H   63.013012   26.336655   37.007935
H   63.212986   96.048553   62.335155
H   88.487747   44.991001   31.937632
H   14.884155    2.300523   51.697468
H   88.411224   54.137253   74.367386
H   84.631737   33.031502   15.677442
H   15.416681   27.423311   44.637199
H   58.730171   85.583221   92.468239
H   11.900005    2.851040   78.229973
H    9.050283   27.675753   50.230045
H   93.554283    9.921729   17.095011
H   75.838326   36.173481   99.193108
H   91.376160    3.407560   85.420647
H   14.100026    1.141738   10.227348
H   43.921047   43.276402   98.193550
H    3.788273   14.405741   80.032600
H   98.078484   79.702492   52.712479
H   92.484489   86.287682   85.799194
H   30.945271   78.578506   95.617592
H    6.148606   27.196398    5.188157
H   50.985245   20.361652   56.845856
H   25.412975   16.414160   10.432552
H   49.901070    3.223939   33.862129
H   17.690649   16.031858   20.761076
H   62.002754   71.300674   66.573601
H   76.460480    8.916056   48.478634
H   95.782776   39.754967   21.183487
H   99.754539   33.100292    4.151741
H   80.370903    7.359064   13.927408
H    0.899271   36.684212   98.156837
H   56.649837   73.369431   37.151852
H   86.396919    5.254992   42.384338
H   84.736572   45.999340   54.028915
H   42.981594   38.519592   33.256577
H   73.176270   61.021450   76.916443
H   65.960411   65.919556   63.042305
H    1.321793   83.643707   65.991898
H   37.821793   22.266155   64.762436
H    3.027921    4.567662   34.824005
H   76.346542   71.030663   76.242729
H   62.154465   61.711021   18.491880
H   87.539513   58.754978   30.106861
H   59.277657    9.873380   48.216454
H   37.411694   26.392445   23.945618
H   30.137367   57.453659   52.701080
H   88.191612   90.514801   14.167114
H   63.065441   83.016403   21.531506
H   32.907539   56.002193    0.809059
H   36.125946   65.797081   93.958710
H   79.972321   10.181511   32.687420
H   57.246864   50.645622   28.235794
H   34.339546    5.638840   85.267365
H   83.828453   29.016741   85.781387
H   81.555122   80.135086   71.308449
H   49.648830    0.145903   11.144546
H   13.217192   43.720516   67.580383
H   63.493412   70.123230   53.191376
H   27.269739   39.466030   75.491684
H    4.685259   92.930931   86.362465
H   54.572956   70.338936   25.049307
H   87.773636   55.541485   32.668148
H   24.666464   31.274433    2.171021
H   28.137646   96.481773   68.500496
H   59.068962    7.628518   32.610764
H    9.568900   93.582672   53.446423
H   96.883522   33.765415   51.157997
H   71.158714   60.197262   71.739983
H   83.587738   75.183617   13.635480
H   76.999863   87.223251   67.675293
H   72.938332   52.733681   84.653160
H   77.823692   99.074585   17.057701
H   12.844628   72.519814   66.253426
H   96.783417   97.700577   94.934158
H   33.941090   82.351402   93.389694
H   38.624210   65.041321   77.821022
H   70.897415   54.748096    4.636294
H   79.166969   72.618004   37.434490
H   25.660000   71.387100   90.106506
H   19.420380   96.683105   76.293541
H   61.493156    2.278810    1.658237
H   23.659678   61.169819   26.853926
H   47.952721   69.504250   10.718571
H    9.600262   84.297989   68.209976
