100
TIME:    5.424, STEP:  5424
H   50.519203   24.613110   94.180191
H   50.677132   98.781219   20.105675
H   72.992249   64.128235   59.677494
H   82.387009    9.181046   42.855339
H   46.588776    7.514946   18.638248
H   43.911266   95.331871   15.902943
H   68.696938   27.591930   14.616944
H   93.570587   57.845928   10.179614
H   20.295662   64.797897   58.666611
H   26.616102   94.263969   20.087065
H   95.727768   84.489090   17.282707
H   48.823280   95.567924    6.843168
H   97.950302   33.591011   86.065849
H   86.517097   88.357582   70.009758
H   46.475349   85.534134   90.045441
H   83.436157   37.326248   82.801483
H   87.941231   40.725773   67.156464
H   17.056234   30.905151   11.502207
H   29.749077    5.895200   49.118427
H   46.383766   90.629433   85.623787
H   42.408867   16.240631   10.028015
H   82.384506   51.284424   57.374573
H   13.325431   50.509178   77.162979
H   15.089832    1.715059    4.239187
H   35.589996   56.010323   76.597328
H   21.820669   66.313477   80.368958
H   94.361115   17.007233    7.585962
H   74.879860    9.613670   46.062370
H   29.110954   41.199436    0.777566
H    8.973978   56.595757   14.581112
H   29.523228    8.436524   80.249321
H    8.231928    2.654780   97.137230
H   52.417194   71.636757   86.433708
H    7.277986   76.645531   43.246056
H   45.945877   48.907333   55.010803
H   44.136387   10.259432    2.373760
H    0.031616    5.896191   35.855206
H   39.807911   59.694622    5.198984
H   16.122570   63.237175   18.686346
H   52.312740    4.406116   64.784630
H   64.559677   42.292801   70.132790
H   44.142265   55.291031   57.619770
H   57.960926   96.026062   93.255470
H   33.002865    3.684468   11.066356
H   86.163704   17.889473   20.256903
H    8.109327   66.371323    5.196768
H   84.109665   19.813614   77.531212
H   56.529087   51.235413    4.184316
H   23.579651   83.234070   28.107918
H   39.635342   13.288099    4.303439
H   43.130802   45.991531   10.604669
H   68.728767   60.433605   17.985924
H   21.381580   53.458923   87.851707
H   51.082344   18.704323   71.162682
H    8.927727   33.938190   46.482059
H    0.351290    6.828201    7.981049
H   40.109467   33.039696   71.854958
H   22.173248   64.657814   73.845322
H   18.056540   67.946434   95.079491
H    1.091743   44.695332    9.339119
H    1.850277   26.331303   91.498528
H    6.408982   77.456253   49.936592
H   42.295925   37.159470   61.530487
H   15.495513   71.309967   79.878876
H   47.611198   27.637878    0.682117
H   68.141106   72.629997   66.892540
H   52.391022   35.884472   28.933609
H    5.692945   27.742121   25.501165
H   27.233305   60.052284   20.048241
H   40.275253   20.953224   90.311737
H   49.796562   26.351654   97.082283
H   26.733826   71.512909   53.742477
H   53.336609   50.011902   22.676170
H   10.807186    6.134519   80.878136
H   23.684549   36.373104   12.573868
H   53.887276   55.201279   30.963453
H   59.419834   56.430676   86.974464
H   86.809708   96.058006   13.986117
H   21.614063   37.586727   78.199547
H   33.524010   13.547481   53.638763
H   17.010920   85.395432    4.169158
H   48.297264   79.646301   33.223587
H   60.956291   97.827820   46.498493
H   23.312826   76.302414   68.017548
H   88.224968    9.609715   21.956306
H   26.457340    8.285872   18.442413
H   29.411428    8.983936   82.180725
H   43.261833   71.040466   39.339279
H   68.246689   92.172997   83.829475
H   86.784210   86.117355   18.112837
H   45.995110   66.310455   48.006756
H   79.619972    3.416305   36.875755
H   33.142212   90.266853   38.450825
H   71.475960   42.240917   92.531197
H   62.813759   63.881817   40.723057
H   41.921768   81.544098   87.292130
H   32.070335   78.953011   25.250107
H   26.774572   62.419800   69.236946
H   50.326172   60.231030   90.719795
H   76.115845   39.445423   75.230057
