100
TIME:    6.025, STEP:  6025
H    9.876480   69.498985   93.629959
H   34.078468   31.349768   58.002178
H   83.327438    7.366927   52.620770
H   82.487885   84.419769    9.911527
H   41.205673   55.687744    2.343573
H   34.589420   94.680763   75.422783
H   37.200062   68.175652   61.615925
H   46.333176    9.841588   54.999134
H    5.521935    7.014195   20.834257
H   10.196486    2.893665   43.620853
H   39.824203    8.671526   59.390205
H   25.883194   25.692524   64.062935
H   59.599136   97.246162   26.347343
H   56.758720   86.505135   15.744755
H   53.784264   31.849846   61.157810
H   59.271805   84.760414   32.913788
H   39.612526   80.477348   21.867865
H   29.908735    1.662618   90.668007
H   39.108158   31.109529   80.782120
H   30.193192   77.864052   26.542597
H    6.744667   56.410305   93.715065
H   40.002960   52.082260    6.193853
H    5.300262   45.621284   59.968231
H   59.249432    8.904757   59.605473
H   14.096078    8.346481   81.035866
H   19.080973   48.546165   23.853893
H   42.536537   92.024551   19.511450
H   24.170067   37.666328   65.929886
H   42.178963   95.727417   72.367310
H   32.017582   41.721153   62.358749
H   53.178375   62.327999   32.700111
H   46.179356   86.047592   41.499611
H   94.749626   27.664282   40.576538
H   32.673027   21.567314   17.927492
H   31.006927    3.475393   91.609268
H   96.380905   57.332695    0.483676
H   57.674187   83.886353   83.211830
H   14.969023   48.694569   47.608364
H   90.754547   50.141655   60.444969
H   95.706009   48.143337   12.068483
H   23.485340   62.912743   84.292091
H   92.459702   65.230179   87.546349
H   63.137691   99.630081   36.666267
H   94.627747   13.772299   69.827721
H   34.031864   94.177200   71.685776
H    0.353810   77.834488    7.638422
H   88.804977   52.498245   83.299477
H   56.561184   57.425522   41.370762
H   41.145805   33.459236    4.133286
H   52.240238   22.435705   62.266350
H   43.087887   87.968369   16.940189
H   97.936913    4.664104   78.532295
H   33.848919   56.943726   52.947208
H   37.166061    8.897269   97.683861
H   61.075554   86.607178   51.594631
H    1.099890    6.196008   87.521576
H   78.210152   15.698199   29.015190
H   77.421783    7.900417   58.365463
H   65.454575   93.339638   48.942543
H   61.429588   90.889221   92.245262
H   39.762653   98.382339   44.639004
H   85.078896   71.862228   22.741379
H   83.098061   96.147499   20.318115
H   56.766579   74.583847   63.564373
H   71.466904   79.637894   56.651157
H   31.220592   42.752403    2.428424
H    4.171085   56.660313   57.949417
H   64.177788   62.113560   54.232441
H   57.188847   16.868248   82.355377
H   52.449135   51.183044   89.046204
H   30.712528   85.459808   89.874245
H   77.177811   51.567001   97.743759
H   14.149879   20.285622    7.265091
H   97.577766   68.095604   45.168083
H   52.659504   37.230549   58.134048
H   68.095695   93.718559   90.523529
H   13.985541    4.338686   97.603111
H   15.045787   56.761429   47.178787
H   50.432461   35.821400   84.903206
H    4.053761   80.809151    1.862116
H   28.772127   91.613052   40.088734
H   93.405518   83.543777   82.949547
H   98.968513    7.878153    3.733422
H   64.658730   27.731644   13.126935
H   58.961800   72.018791   63.696213
H   12.623592   30.361637   60.177505
H   69.550850   65.286201   10.838766
H   52.927574   22.946711   33.107903
H   80.718613   58.709724   78.914070
H   33.647526   61.393116   39.596291
H   70.590477   98.764969   60.698772
H   24.087885   48.616669   48.325165
H   71.667618    8.298177   84.927078
H   29.560707   78.702950   33.055435
H   52.423546   10.046207   54.533878
H   91.561859   57.810760   56.249878
H   84.366386   13.442937   90.685837
H   26.647684   84.575287   57.927811
H   21.695770   62.821705   40.380592
H   13.447815   24.023987   17.332790
