100
TIME:    3.203, STEP:  3203
H    0.716918   28.289818   96.213577
H   12.172794   78.407043   80.044296
H   34.811432    4.341101   85.741539
H   82.014221    0.685605   64.597473
H   66.482071   29.492077   78.858490
H   78.353157   97.738045   95.949425
H   85.100868   77.620033   40.931709
H   68.136810   65.701096   14.104589
H   74.892082   78.337952   98.468864
H   87.311928   62.373695   33.116142
H    2.319772   95.122375   31.220629
H   33.591316   84.240631   64.935982
H   39.519485   67.921402    6.777235
H   96.487526   95.203316    0.988789
H   19.461269   83.922623   96.806343
H   72.738602   31.583099   67.164406
H   66.540932   93.824814   64.970078
H   69.589684   38.938866   88.501160
H   95.155373   12.721957   32.108669
H    6.226341   37.796146   34.407738
H   74.206161   37.348816   70.305832
H   69.455078   48.336014   46.513229
H   42.979362   68.572426   40.709503
H   21.448135   75.096649   69.191917
H   15.026776   32.145493   60.194679
H   31.972353   32.171238   88.954033
H   85.880737    9.331353   63.526531
H   62.281033    5.944901   72.647423
H   80.816711   39.692917    5.765311
H   23.810295   11.565835   38.017487
H   42.113667    9.275126   55.967781
H   67.996590   64.012947    2.746317
H   95.972015   34.135063   86.348488
H   13.435315   80.186958   36.812958
H    1.152432   16.798065   19.769150
H   51.042812   36.097233    9.629689
H   87.008308   87.234360   60.849178
H   31.605721    0.330384   48.467556
H    9.871806   11.629728   33.917358
H   61.505726   12.328815   90.039650
H   16.349474   66.083923   17.806990
H   43.753777   55.612175   53.280609
H   38.830151   82.707382   32.829975
H   74.826035   66.454407   93.906456
H   78.818596    5.518661   30.200659
H   36.764515   24.009113   96.174263
H   66.758102   99.027069   56.208359
H   56.410473   28.361166   66.761421
H   58.654152   67.176079   16.704588
H   93.056389   79.493340   59.641254
H   43.300251   60.414597   87.188751
H   60.792362   66.525650   63.792385
H   75.318718   40.580811   16.843639
H    2.521931   54.949432   73.156219
H   85.765366   39.287003   27.590490
H   97.573898    9.165533   83.589127
H   99.309044   97.125252   60.619408
H   87.554436   74.403702   31.054745
H   42.890099   74.103149   65.588356
H   47.653107   73.981857   72.509651
H   61.748451   29.618137   64.663498
H   85.233879   98.129013   50.430099
H   91.511940   88.715874   13.831161
H   62.985046   59.218025   40.180065
H   59.456776    5.025183   93.850197
H    4.579899   83.042274   35.570160
H   30.586273   59.096386   21.703390
H   59.112663    0.719522   19.324522
H   16.538376   19.639168   59.347309
H   95.278870    9.243650   94.988525
H   20.322655   77.467491   23.726665
H    9.865581   45.223862   91.130371
H   98.149384   59.871143   79.623283
H   59.704159   46.687729   12.844734
H   16.601507   33.204411   44.207432
H    1.376044   12.854509   80.407837
H   57.767368   48.932404   47.696217
H   82.463089   41.284405   91.329102
H   15.109178   44.110508   53.418892
H   42.444252   34.511295   44.979843
H   73.558792   62.418163   71.424652
H   81.649200   65.145584   18.944693
H   20.452551   60.720734   34.969730
H   70.510468   86.246429   70.871552
H   96.369232   48.535786   37.257423
H   77.575562   26.705139   64.209244
H   81.075844   70.468727   76.274673
H    7.515356   48.854385   62.432343
H   22.154793   15.834515    1.995039
H   83.150482   77.496048   38.717079
H   55.102570   46.383938    1.103245
H   15.281816   36.389343   94.556496
H   90.773209   23.622595   66.697350
H   56.810688    7.517838   42.780243
H    1.211088   62.825428   89.689049
H   58.476257   69.248360    2.009661
H    8.363547   51.494122   52.982246
H   18.624083   43.509308    4.785627
H   56.129875   50.657169   76.752388
H   38.161251   96.440712   89.184418
