100
TIME:    8.875, STEP:  8875
H   17.142189    8.141813   91.020706
H   55.370224   85.787231   37.702068
H   32.324001   12.407111   19.161274
H   82.966248   67.000420   53.694679
H   15.671530   84.127640   25.067368
H   90.390991   91.593147   57.667633
H   87.831276   60.621758   84.489723
H   22.328796   56.401318   93.320335
H   35.463432   32.997696   41.437725
H   32.352364   43.816853   55.212868
H   74.724152   23.346539   84.864326
H   17.106316   68.548515   61.196770
H   77.820312   24.795868   43.134140
H   15.644748   77.720650   32.631641
H   88.401741   77.274086   24.102310
H   44.679214   35.489098   96.337952
H   10.432340   68.981911   81.314613
H   90.849777   62.981453   91.875565
H   83.496750   50.671818   30.931103
H   53.405727   17.343515   20.583826
H   37.621635   72.683563   16.361910
H   13.235238   55.865677   63.490051
H   67.248161   22.446905   78.425873
H   94.442245   42.998993   47.939877
H   12.163968   82.328552    2.082834
H    5.760111   64.468491   55.705700
H   96.777504   73.555069   76.062363
H   83.694794   70.694702   60.135025
H    4.148983   54.301296   37.645317
H   41.299355   71.183121   88.925964
H   65.344902   17.894440    7.217323
H   26.130085    7.306724   77.660881
H   95.499405   19.145073   97.327042
H   53.092224   60.381897   97.862602
H   60.081505   87.707985   65.016312
H   44.125797   80.560226   91.525002
H   31.027306   79.512947    7.780616
H   97.172859   96.534264   48.724541
H   70.456993   88.047020   84.259186
H   27.267981   81.335808   36.300980
H   28.707674   60.702682   51.435635
H   52.277267   76.406479   33.045727
H   87.665436   16.726479   42.523045
H   12.646236   61.614983   48.484188
H   86.815201   81.737801   15.569118
H   63.563728   32.187847   19.216982
H   11.077971    7.490553   10.659464
H   56.729305   86.779617   17.711842
H   24.455849   97.423500   90.446381
H   12.070190   65.817528   62.993992
H   42.892193   12.819424   46.984634
H   36.454525   40.204845   91.447365
H   92.959587   73.468994   87.426620
H   71.164215   62.405197   23.445084
H   34.154640   36.367332   75.828323
H    4.649561    3.198085   90.500839
H   58.887062   33.462273    0.073692
H   65.205017   38.753288   84.954857
H   90.230263   13.768910   30.151499
H   73.359520    9.949452   11.184471
H   19.542345   65.840820   22.431568
H   83.926811   45.334824   93.788765
H   76.585129    1.668535   24.885071
H   52.470951   90.108902   86.183014
H   84.587433   52.013073   22.058939
H   56.143593    1.071148   70.943626
H   75.510483   55.192158   95.546432
H   67.308777   25.108498   90.478928
H   99.229523   12.085426    3.607255
H   10.271636   94.413406   83.019882
H   40.206295   91.544365   55.693031
H   42.432404   56.915428    6.580350
H   28.325165   79.316307   34.194920
H   34.835346   87.721046   75.831429
H   89.989304   41.383190   74.210144
H   35.468307   76.377922   98.755051
H   72.822098   57.647511   48.143135
H   48.938122   70.411629    4.581598
H   87.102013   27.450047   16.701326
H   64.286980   25.556334   56.332024
H   84.558250   21.098307   10.429883
H    7.269515    2.028207   44.521240
H   79.238075   55.539585   75.153664
H   60.733795   71.612160   52.822491
H   20.192322   93.736496   87.422012
H   47.034885   35.046944   58.090164
H   59.896030   58.067360   46.737480
H   98.763451   94.888039    3.557944
H   39.867191    0.027015   55.604744
H   81.669876   44.135612   41.476318
H   87.224236   52.653614   20.885887
H   34.959026   62.964188    2.633853
H   54.358082   93.808861    5.321956
H    5.000078   51.608875   25.225508
H    3.146054   54.761982   20.024122
H   26.960236   45.267456    9.043680
H   58.146477   76.996864   26.779324
H   21.146509   25.595779    0.713995
H   85.928612   75.126595    1.662294
H   90.472107   50.885693   42.783504
