100
TIME:    3.472, STEP:  3472
H   82.525299    3.621298   95.967300
H    4.689683   92.990738   97.012772
H   39.435280   23.693333   82.585091
H   82.059372   89.603081   49.851727
H   64.072662   51.053616   71.564590
H   74.182869   97.446617   22.589544
H   71.001518   95.782951   61.967857
H   46.993942   88.974258   89.406242
H   68.279549   52.474777   81.537331
H   79.960564   66.236137   43.650635
H   77.298050    5.946065    5.309225
H   23.323624   97.724289   45.787956
H   22.408825   51.646606   80.040123
H   83.168053   94.374184   21.460537
H   22.733673   59.894211   83.876808
H   61.922943    8.055277   44.835304
H   44.909615   11.617293   89.458206
H   75.336143   25.857460   79.175476
H   99.346184   24.007593   46.279850
H   98.979362   32.084576   52.722527
H   58.243317   10.568260   63.004005
H   95.244370   48.693115   23.605377
H   39.387825   66.384666   33.013351
H   96.455055   78.322876   49.213238
H    5.406074   10.811760   62.181313
H   30.737890   24.155973   63.739410
H   62.685444   98.149246   68.862709
H   39.584568   18.500916   81.538017
H   86.665787   64.098953   93.049599
H   34.124374    4.907638   59.402527
H   52.701519   33.396717   34.685356
H   84.981483   56.581543   77.843636
H   14.920120   14.454353   10.582135
H   24.801903   55.534645   25.480709
H   94.465897   96.463402   36.148613
H   74.433891   57.229839    8.702176
H   12.809327   77.383286   82.045403
H   20.488373   95.408821   67.449715
H   98.516968    5.769365    7.849903
H   36.169994   87.146255   11.203588
H   97.965714   75.315201   24.144514
H   19.577599   67.685272   65.918716
H   41.147205   84.320496   52.259167
H   57.648224   70.961273   20.208036
H   55.484615   94.904968   53.219418
H   33.294064   29.139881   97.266090
H   68.859665   13.656758   58.792213
H   56.424839   31.130754   83.405632
H   66.517197   44.897995    5.973620
H   98.696129   83.585640   40.827755
H   43.279728   34.444702   90.025040
H   73.865555   41.563644   46.132282
H   80.896889   42.140564    1.220432
H   96.291954   50.559547   85.026764
H   64.347488   62.861855   29.877787
H   97.910477    8.882315   74.431732
H   16.362223   89.363426   86.203468
H   67.523918   49.000244   24.125130
H   64.104805   85.468826   44.936146
H   29.902702   94.656799   64.858650
H   78.716927   17.108681   43.690907
H   75.686546   95.625198   38.257866
H    9.773942   70.360039   95.385002
H   81.455925   60.681320   32.875904
H   70.133751   83.541328   18.901430
H   88.054817   69.669441   51.475540
H    9.003185   68.396362   34.691204
H   40.531075   16.104548   32.184277
H   29.946098    0.310558   42.475292
H    0.729646   22.773741   94.422089
H   11.780180   59.165016   20.499413
H   87.684860   36.296326   10.824897
H   80.610367   46.566036   72.727531
H   53.781765   29.663982   96.860191
H   29.571062   33.588192   64.599159
H    7.735834   30.094915   62.306683
H   82.190346   25.616425   52.453465
H   95.101196   23.694567    6.184408
H   28.007963   43.320370   56.421417
H   29.252022   19.860725   21.805191
H   78.820908   65.201096   87.502426
H    1.831736   66.902359   96.450562
H   37.472332   65.211182   60.590733
H   89.018173    9.265318   46.302811
H   83.271408   31.708920   11.180904
H   71.385803   36.586449   82.889343
H   99.041740   50.910240   89.101593
H   11.844698   27.317474   59.635048
H   27.738094    0.857317   99.794319
H   59.367947   66.430008   48.332138
H   66.111145   60.908115    6.784097
H   35.186302   56.618935   99.683159
H    8.016425   31.694319   87.499535
H   82.809883   23.834713   60.916481
H   96.560341   38.729290   95.870598
H   80.694534   58.625618   88.115471
H   87.011566   66.931572   37.511955
H   19.611242   45.799683    0.481404
H   43.315269   51.816723   54.221268
H   54.869083   89.536751   63.271927
