100
TIME:    4.198, STEP:  4198
H   33.428131   37.043274   95.302628
H   84.537300   32.347229   42.803345
H   51.914513   75.925102   74.066200
H   82.181229   59.692802   10.055760
H   57.569946    9.245715   51.879196
H   62.927212   96.660088   94.487816
H   32.953518   44.807293   18.742075
H   89.931770   51.781567   22.747204
H   50.433083   82.672745   35.837658
H   60.120079   76.660423   72.080444
H    9.767288   35.158009   35.377064
H   95.613213   34.114525   94.111275
H   76.184097    7.728424    7.887770
H   47.220329   92.136452   76.710190
H   31.565514   95.045410   48.979099
H   32.732727   44.556694   84.570251
H   86.528877   59.634495   55.548851
H   90.845177   90.551781   54.004330
H   10.653625   54.466225   84.529205
H   79.415825   16.666948    2.152008
H   15.161438   38.293438   43.301994
H   64.846695   49.656891   61.779800
H   29.694679   60.480156   12.239940
H   29.001839   87.030090   95.292465
H   79.439850   53.237930   67.543007
H   27.409468    2.550066   95.657936
H    0.080197   67.973099   83.263954
H   78.326385   52.388153    5.533663
H    2.451932   29.967091   58.730324
H   61.963089   86.938957   17.117542
H   81.273567   98.498817   77.246544
H   30.821363   36.525040   10.634132
H   66.060036   61.336571   75.985947
H   55.477203   89.001160   94.896843
H   76.420029   41.583580   80.356949
H   37.562275   14.234594    6.230474
H   82.441574   50.796371   39.251209
H   90.481453   82.126442   18.683224
H   67.875549   89.951164   37.494530
H   67.787895   19.180325   68.325256
H   48.347885    0.229313   41.248760
H   54.328812    0.265353    0.027512
H   47.400669   88.674103    4.700306
H   11.288530   83.124786   91.192993
H   92.510338   66.257568   15.344859
H   23.927715   42.987232    0.213135
H   74.531540   53.139610   65.764336
H   56.463612   38.608002   28.326347
H   87.742416   84.771332   77.015228
H   13.922191   94.630287   90.051125
H   43.224339   64.353706   97.679855
H    9.147890   74.196869   98.469971
H   95.951729   46.350159   59.057278
H   79.475731   38.711754   17.062534
H    6.543315   26.490816   36.052753
H   98.818863    8.117941   49.716980
H   62.385281   68.415154   55.252205
H   13.463925   80.438194    5.423681
H   21.364317   16.144382   89.200447
H   81.993866   50.461086   44.209480
H   24.513891   83.345360   87.086830
H   49.919395   88.867691    5.406803
H   59.063725   20.819130   45.601006
H   31.308214   64.631470   13.162815
H   98.947319   25.556335   86.510277
H   43.455269   33.577705   94.402328
H   50.755325   93.498840   69.741623
H   90.381065   57.625504   66.891273
H   66.131668   48.144821   96.940491
H   15.438227   59.291275   92.893341
H   88.726402    9.767673   11.789429
H   27.823147   12.201716   63.981007
H   33.274582   10.657085   54.113747
H   37.796383   83.722099   53.722923
H   64.571907   34.623974   19.634962
H   24.900354   76.625938   13.457787
H   48.106499   62.692799   65.292732
H   29.210003   76.224373   46.280487
H   62.820206   41.187878   64.524529
H   93.647247   80.322350   59.259758
H   93.022751   72.711899   30.892996
H   56.306870   71.643692   35.743774
H   83.404427   77.330383   29.738781
H   38.965790   71.390938   79.994217
H   47.921890   86.297279   40.803329
H   54.677265   63.256447   33.305191
H   47.529655   98.124115   23.720488
H   23.529093   69.192238   52.085472
H   42.804794   60.434166   93.856575
H   95.178635   36.558952   74.284271
H   95.822021    0.112288   22.115885
H   88.905914   11.212357   13.517740
H   54.553413   53.478973   43.642315
H   52.981106   67.873825    9.868616
H   84.009102   73.698906   12.552840
H   40.659195   29.956261   50.616844
H   29.384556    8.595199   95.757828
H   22.275473   51.981140   88.860878
H    8.730125   54.946224   93.409843
H   99.966011   70.903755   93.333206
