100
TIME:    9.565, STEP:  9565
H   70.480133   44.865395   90.388992
H   36.313522   23.176998   81.209282
H   44.184429   62.048256   11.061373
H   83.082062   38.573296   15.871930
H    9.488630   39.433914    6.360062
H   79.693970   90.845619   25.999523
H   51.667454    7.211818   38.448635
H   68.096161   16.096478   29.967133
H   18.501915   66.656189   98.004219
H   13.503649   53.724232   82.229164
H   10.542023   51.109543   18.398039
H   90.770958    3.134711   12.082085
H   33.821442   83.031685   74.563751
H   81.480164   75.593880   85.140739
H   96.782478   15.639870   90.919945
H   16.935017   75.139023   39.062561
H   54.946632   14.621885   44.128036
H    5.608893   29.405861   67.954666
H   94.246414   79.617264   67.281494
H   34.817547    2.690386   67.562279
H   96.675568    3.991451   97.632797
H   79.386215   56.781662    4.730170
H   58.035667   16.837812   58.684814
H   30.331120   51.253387   96.693756
H   87.485703   27.608101    7.176151
H    2.505317   44.127304   90.772758
H   37.278221   44.871746   89.749496
H   25.475023    2.901571   82.940788
H   19.153057   16.903746    5.029943
H   67.757637   54.105789   43.778328
H   92.498070   79.767487   52.626740
H   69.697281   88.241257   13.784081
H   44.103600   68.661514   59.487694
H   82.245819   97.147606   68.793236
H   42.909416   35.465248    6.994429
H    4.106847   34.605183   89.356117
H   97.207275   54.244392   62.149921
H   68.650978   83.910515   97.417503
H   41.330883   73.012230   17.392849
H   62.276417   16.739212   90.588943
H   81.551727   84.380692   67.691734
H   94.127571   79.112320   68.269524
H   93.603546   20.866837   92.362999
H   68.593300   73.197487   15.948794
H   26.963346   54.519627   74.616898
H   54.661827   45.348553   22.020212
H   16.472660   45.017902   17.285624
H   56.771420   93.886398   60.405170
H   44.623314   40.276638   62.924507
H   26.552588   76.325035   14.747753
H   44.541142   46.332680   51.653564
H   69.988007   76.178589   46.153481
H    7.269840   77.469849   47.352821
H   55.184761   51.144897   53.892952
H   79.215157   96.835281   81.692734
H    5.508955    2.472272   67.011612
H    2.632375   13.552595   65.698540
H   13.826499   73.590782   67.182640
H   44.650936   42.926125   77.180794
H   27.827663   62.987095   91.559242
H   63.071941   33.754719   68.638924
H   59.437370   38.912399   62.571327
H   23.428120   54.584740   77.569702
H   99.850769   93.867599   67.452698
H   11.973414   96.901680   86.315178
H   13.756655   66.769127   11.742166
H   20.150726   79.047943   28.860970
H   19.645966   64.570015   23.464920
H   33.620468   62.506439   60.334057
H   24.285156   29.069628   81.556412
H   18.292736   44.595318   47.417580
H   85.612541   34.005272   57.155407
H   83.336258   45.185604   16.501667
H   19.647892   44.050968   34.833199
H   23.226152   42.399197   26.526205
H   51.782318   20.599148   52.325409
H   35.489204   97.924484   60.382591
H   81.353127   25.296730   42.689796
H   20.190596   25.423298   24.402971
H   30.448296   87.967995   96.888039
H   98.066399   28.236673   51.670448
H   59.044777    6.507453   86.795799
H   22.880465   67.078896   40.865627
H    8.206273   30.657364   89.802666
H   86.595673   50.571022   20.534494
H   31.152546   60.394463    6.005803
H    5.979618    7.898539   79.639244
H    9.859772   39.676247   96.406540
H   54.186039   61.608284   49.961433
H   20.664122   15.745338   66.139938
H   15.462521   89.912598   35.457420
H   86.012039   14.859024   15.779000
H   98.588577   14.511656   58.680717
H   69.987465   93.340988   74.357140
H   91.216644   92.954720   35.878151
H   83.951355   18.020884   73.404160
H    3.377957   16.594223   87.095917
H   19.814646   59.735142   86.858543
H   53.058434   78.106178   43.869022
H   33.330292   33.181911   76.313583
