100
TIME:    1.769, STEP:  1769
H   97.692535   59.794998   97.526443
H   52.062309    0.656650   89.588280
H   10.162367    1.173521    2.569325
H   81.773529   59.767479   43.198635
H   79.326279   14.550664   17.739838
H    0.584531   99.291603   53.936291
H   60.255573   80.789268   28.790962
H   80.846382   41.642567   45.770767
H   10.142601   16.211395   88.734718
H   26.497282   41.783577   76.962944
H   35.706955   37.421909   69.349655
H   88.322037   12.361347   67.009697
H   30.736656   54.680458   49.304344
H   67.491096   99.623299   91.861244
H    2.016951   12.013147   65.739944
H   30.397354   57.007317   86.198990
H   81.842514   98.983780   34.418083
H   38.947197    8.674166   38.218552
H   72.814766   52.566582   56.558834
H   44.857430   68.245224   36.774361
H   59.301666   80.108032    9.230999
H   31.971195   46.434814   68.628761
H   62.125328   80.235054   81.736572
H   54.682259   57.898106   75.693497
H   66.314323   45.875992   49.614113
H   38.547649   74.896881   23.364256
H    9.535557   68.943741   35.070156
H   83.278671   39.010647   25.245638
H   49.636139    9.589715   73.550896
H   68.824699   47.057327   24.018780
H   85.689186   80.680130   69.428925
H   77.452972    3.638747   35.498863
H   94.963211   39.053383   57.162445
H   52.845924   11.604378   97.226685
H   36.800560   25.197456   32.448082
H   26.362648   23.447760   14.558408
H   49.468750   39.752296   47.855534
H   90.875648   26.576389   47.274174
H   71.194168   42.745064   72.577347
H   96.573662   46.575687   77.216019
H   14.350182   16.882120   84.021408
H   72.633545   91.250908   85.910767
H   26.478270   74.108109   29.250404
H   66.396660   42.419128   53.696896
H    3.208287   62.092762    7.487963
H   55.264988   96.657753   90.353889
H   54.759083   21.167879   42.739204
H   56.333889   13.596891   78.033638
H   16.740896   85.940880   73.909378
H   62.991383   57.674709   59.937298
H   43.409657   98.857582   72.068909
H   91.103554   99.588669   57.931561
H   45.575523   32.265991    0.128329
H   35.726505   78.344566    9.877981
H   99.929153   13.584593   15.417362
H   95.779648   10.672813   32.405869
H    8.399523   38.503410   24.234182
H   94.333832    9.827186   67.990189
H   29.794106   13.512813   75.676956
H   42.282467   63.760365   13.295188
H   71.290512   96.306099   76.470055
H   36.125885   11.478825   15.311965
H   94.222595   86.520470   12.197991
H   64.514771   51.417412   79.113243
H    2.535801   19.556675   60.305592
H   92.672920   54.330788   50.782436
H   45.638687    9.522622   52.469982
H   58.168861   18.708221   50.771030
H   45.069756   22.677261   49.284744
H   66.220764   37.118553   98.008118
H   65.858635   75.037895   40.931065
H   28.105268   92.815262   86.139763
H   91.649124   30.804295   16.388348
H   91.258202   37.433701   98.071632
H   47.461624   31.160776   35.500591
H   67.481850   20.948526   76.897697
H   27.568354   73.222641   22.333933
H   15.091166   35.049896   12.134353
H   46.346489   48.320164   37.415291
H   12.770458   12.609995   68.520271
H   45.500004   47.582775   85.717934
H   74.053711   55.780472   38.855179
H   29.727360   36.782806   98.388489
H   71.862251   63.537212    1.851326
H   66.193832   38.232529   76.267776
H   10.575443   74.034508   64.627983
H   85.302223   74.732208    7.895901
H   84.432571   63.664169   77.354103
H   92.393501   95.677559   13.726746
H    9.934690   36.494270   87.455193
H   96.417274   68.951111   70.819778
H    9.175196   28.551180   67.226997
H   98.787056   80.636520   55.769882
H   18.207943   20.535151   46.092812
H   26.007484   91.272980   56.736107
H   40.033752   25.874914   76.077713
H   22.187408   69.199791   35.452560
H   13.360307   31.299652   27.732098
H   24.441364   44.475758   96.870773
H   49.102249   33.264317   27.306034
