100
TIME:    3.934, STEP:  3934
H   51.281647   61.253479   95.544327
H   91.838158   18.039232   26.155195
H   47.376610   56.931572   77.163979
H   82.136917   70.569267   24.526701
H   59.934570   88.084953   59.037521
H   67.020515   96.946098   68.344017
H   46.788784   26.979961   98.096855
H   10.681656   28.943005   46.987621
H   56.922707    8.055338   52.456493
H   67.334801   72.869774   61.743332
H   34.323929   24.535328   60.805836
H    5.689148   20.881495   12.902781
H   93.020920   23.695099   34.121582
H   60.292229   92.950172   56.620220
H   28.353935   18.626656   61.670322
H   43.347351   67.647026    6.484540
H    7.758238   42.173740   31.515890
H   85.205528    3.390106   63.158688
H    6.541807   43.390358   70.619415
H   86.529839   22.273363   84.177666
H   30.827576   64.576172   50.466362
H   39.536758   49.306427   84.261856
H   33.219460   62.627251   19.793797
H   53.530281   83.863831   14.899530
H   88.882233   74.174149   65.593300
H   28.617735   10.390304   20.437014
H   22.845259   78.946243   78.027138
H    0.602950   40.065521   96.807365
H   96.711411    6.015495   71.210060
H   51.839920   93.472893   96.130737
H   70.884529   74.824379   98.133385
H   14.152230   43.818314   35.073952
H   47.463520   80.652367   52.202744
H   44.322784   13.195044    6.018589
H   82.982162   61.539879   64.279922
H   14.608713   93.521637    7.107460
H   57.120102   60.464340   18.448965
H    1.393967   86.956398    0.053932
H   79.017883   95.703606   63.078392
H   92.654716   43.895561   47.553638
H   66.390732   91.169662   35.029034
H   78.055618   88.418030   87.624313
H   45.126682   87.090973   85.630547
H   28.146044   78.701691   65.379517
H   15.410658   76.674805   92.753357
H   27.333660   37.951832   99.141273
H   72.469040   38.782677   63.229912
H   56.449512   35.888885   11.991508
H   80.024155    6.636489   87.545258
H    8.385264   90.614052    8.516094
H   43.244480   89.840889   94.896286
H   96.318405   98.693085   15.801548
H   90.477242   44.819397   74.389717
H   85.590721   43.020042    5.413638
H   27.562881    3.354154   33.806965
H   98.488541    8.395895   58.704163
H   45.649624   76.032707   30.143682
H   33.122063    5.369627   12.223989
H    0.543939    4.989387    9.467403
H   99.416351   30.168425   51.718269
H    7.860054   95.623680    7.670973
H   59.289268   91.324966   17.352394
H   41.139713   38.834404   63.704277
H   13.179766   63.194489   20.331211
H   88.469658   46.642269   61.925434
H   59.673286   46.701973   78.792587
H   71.936234   84.370667   56.996014
H    8.617510   42.527359   54.270550
H   52.973488   67.114182   13.498150
H   10.089624   46.011917   93.449249
H   97.109337   27.730785   14.956696
H   49.590370   20.963531   44.651112
H   50.487595   23.714886   60.883339
H   43.609249    0.427579   69.409203
H   51.844341   34.247326   99.621376
H   18.658472   59.706482   31.221600
H   24.136309   85.573776   60.623905
H   16.806805   93.485725   31.699984
H   50.161209   41.963329   61.578171
H    6.594396   94.699425   82.003654
H   87.858444   69.980698   15.115045
H   36.497604   69.919571   57.818970
H   66.703011   72.923401    4.594040
H   20.803488   48.800117    4.107458
H   60.776260    2.809639   66.395248
H   60.753986   53.558266   14.972278
H   29.897696   17.319084   11.131792
H   19.280222   90.328835   54.830772
H   37.326279   75.133507   96.015755
H   18.519850   47.421318   64.845917
H   85.018066   85.856071   16.540689
H   69.372589   91.359917    8.486893
H   37.630440   45.557281   23.226786
H   27.463711   51.859726   92.068138
H   88.573189   97.345146    6.486693
H   18.853897   40.381355   64.252708
H   50.339752   93.444969   10.940931
H   21.306662   49.733337   93.086586
H   21.306541   53.808224   15.522705
H   83.566719   77.679390   18.765051
