100
TIME:    8.920, STEP:  8920
H   14.099093    4.015201   90.979507
H   54.127396   88.225510   40.539631
H   33.097507   15.644473   18.633072
H   82.973801   65.146477   51.227905
H   15.268297   87.734589   23.847370
H   89.693359   91.544395   62.124306
H   85.472649   63.660507   88.008781
H   18.791885   60.294254   89.188789
H   34.357246   28.671009   38.604969
H   31.123144   44.462986   56.974800
H   70.538361   25.157051   80.529533
H   15.388672   70.804146   57.993568
H   74.950821   22.072289   38.662361
H   13.416669   77.581947   36.056286
H   88.948311   73.254463   21.938347
H   42.869904   31.553246   92.602600
H    6.813646   71.958519   85.411140
H   91.812454   60.791740   90.315506
H   84.197815   52.559750   33.301746
H   52.193455   16.387877   23.647638
H   34.951271   68.203888   15.140539
H   17.549433   55.925415   59.657883
H   66.647346   22.081095   77.138412
H   90.261261   43.537323   44.597630
H   10.554557   78.760056    2.415020
H    5.547852   63.141891   51.470814
H   92.897270   71.684647   76.955002
H   79.897644   72.795151   61.622643
H    5.127496   58.384090   35.518089
H   43.024895   70.069382   92.503387
H   67.115761   21.929684    3.657068
H   28.971424    6.063509   73.495003
H   98.668961   15.852779    1.380999
H   54.993546   56.257904   95.966774
H   58.961586   84.300850   67.753967
H   48.037617   84.084778   91.383553
H   35.343254   77.864998   11.326367
H   95.312737   95.710976   51.899933
H   68.557732   87.066490   79.898300
H   23.029490   77.123238   39.841667
H   25.632360   62.246605   52.495815
H   48.484924   76.582947   35.342899
H   88.052704   16.996502   45.773281
H    9.772968   62.370636   52.883869
H   82.911621   79.962822   19.420008
H   62.983170   33.046154   19.399801
H   11.429791    9.937929   11.091621
H   56.732052   87.243103   20.496189
H   25.771118   93.696388   88.651489
H   13.014757   66.502800   59.847439
H   42.889103    8.474846   47.459106
H   38.641491   36.029011   88.493416
H   93.892738   73.729919   84.813248
H   70.121887   61.670830   25.430691
H   30.571655   40.311081   76.210785
H    4.705608    3.150749   88.968933
H   61.739731   32.163826    4.353624
H   61.854187   34.503639   83.795799
H   93.779533   15.670403   26.696814
H   70.389778   13.408429    9.904564
H   22.381109   63.747967   18.923153
H   82.329674   44.915970   91.752861
H   79.640015   98.597801   21.799286
H   55.561199   90.354034   84.961472
H   86.373398   48.418827   26.249708
H   53.379158   98.834099   73.604378
H   71.900101   56.747753   97.718979
H   64.200333   27.682217   92.630188
H    1.472293    8.852013    0.784867
H   11.185561   96.673843   82.924438
H   38.777042   88.482613   55.153328
H   38.726921   55.421288    9.878757
H   25.391129   77.090202   33.041012
H   33.844860   84.872841   73.157631
H   92.157043   41.449451   77.622086
H   36.532265   79.261833   95.726944
H   76.909012   53.752514   48.941360
H   51.051960   67.469353    7.066954
H   89.260139   27.317867   17.203608
H   62.080101   23.104837   52.455223
H   85.439217   21.563852   13.119559
H   10.646189    2.320332   40.756706
H   82.084221   56.292149   79.439018
H   63.829536   75.462868   48.712574
H   18.001236   90.921249   83.059753
H   45.999081   36.700043   61.215088
H   62.901478   54.795494   48.883247
H   99.487175   91.287270    3.091390
H   40.801029   97.521446   55.236702
H   77.691452   42.284073   43.084785
H   89.065819   55.083309   21.836205
H   38.288570   66.348663    3.491152
H   57.242680   95.158806    8.801875
H    9.349089   54.338978   28.259623
H    2.367956   50.731030   21.058039
H   30.677048   43.490417    6.719299
H   54.574547   79.579338   24.191185
H   21.059649   27.822399   99.810509
H   83.784904   75.320915   97.893150
H   93.267441   49.731098   38.448368
