100
TIME:    1.983, STEP:  1983
H   83.220367   40.170059   97.330521
H   46.109520   12.259493    3.087289
H   13.840818   16.568993    0.057061
H   81.809448   50.950951   31.467793
H   77.409500   31.703709   11.937786
H   97.266731   99.059761   75.129387
H   49.040623   95.238579   45.526039
H   64.026405   60.155643   26.121338
H    4.882072   95.635925   75.265022
H   20.649801   44.856300   85.341911
H   15.801193   46.032719   48.736515
H   80.155319   23.087984   51.776695
H   17.124100   41.733223   28.035133
H   56.894936   98.963692    8.146496
H    4.620149   92.897949   55.452637
H   21.792946   38.288765   68.435318
H   64.637222   13.135963   53.900978
H   43.520363   98.267174   30.799473
H   76.148720   61.544746   67.833115
H   39.092400   63.699924   51.344490
H   46.602600   58.804287    3.422703
H   52.490849   46.717270   50.406715
H   59.268120   78.494606   75.613983
H   34.799355   60.464695   59.800453
H   58.660271   28.904175   51.192924
H   37.566402   68.519592    3.306051
H   91.082451   60.048115   39.316784
H   65.221115   48.999447   32.319233
H   54.289307   29.004988   63.434746
H   77.030602   41.760880   41.031033
H   94.107338   99.870773   52.495770
H   90.965118   97.726021   15.687798
H   10.037020   23.396332   76.441254
H   61.887764   91.992722   88.210968
H   31.481174    9.020583   45.478584
H   44.969036   40.259159   13.822881
H   69.993774   31.915373   64.717957
H   82.029732   22.659565   62.374928
H   61.573944   38.176796   52.066536
H   76.416466   26.541166   94.052322
H   99.726143   24.225145   89.063156
H   53.400452    0.854519   95.964874
H   28.321577   75.391403   44.707230
H   52.731041   46.006149   74.620651
H   84.644753   53.650120   25.801035
H   52.504108    0.739474   91.222481
H   57.018726   32.712631   44.567818
H   56.345318   15.800207   91.274757
H   22.995733   68.216393   65.373672
H   67.478386   60.931927   44.970425
H   43.393330   78.197517   74.325287
H    1.503679   79.731888   43.882259
H   50.014809   33.506836   87.700279
H   30.771290   74.853874   19.320646
H   82.893661   32.345036   17.233046
H   96.047409   10.447910   25.120804
H   21.965776   32.328575   44.587303
H   78.398773   89.617462   62.478226
H   46.671227   22.555357   59.248352
H   28.161327   80.208115    7.208926
H   84.789597   86.353218   59.784374
H   28.530983    9.486534    5.628836
H    8.737925   71.927483   97.516525
H   79.208984   52.581520   73.304131
H   11.029986    2.464598   80.234512
H   79.526497   43.692177   63.435787
H   28.469145   16.920801   62.801647
H   43.386482   30.947685   61.001469
H   55.736122    7.300583   35.862396
H   70.557190   47.882881   97.557495
H   59.063377   60.477165   38.364475
H   10.460095   85.713058    1.807164
H   77.696152   20.219563   10.900875
H   86.549522   23.891024   85.352974
H   57.778595   31.465273   51.723003
H   72.539925   34.664101   62.497540
H   46.998817   54.674454   26.119326
H   25.145275   21.056746   23.953266
H   56.604683   47.693211   39.802284
H    2.275228    0.955012   50.083931
H   49.687855   49.796703   98.508430
H   90.109589   57.178055   20.960386
H   43.267262   40.355133   18.770695
H   86.582588   81.849464   82.304749
H   55.774002   24.846100   55.522812
H    5.649714   81.894279   79.488731
H   99.594795   59.172668   18.100538
H   87.877548   46.530716   75.127113
H   96.834419   83.762184   11.976093
H   91.014450   27.689171   95.105980
H    5.175135   80.507294   75.339066
H   25.009344   44.645794   71.305458
H   12.517262   87.049728   72.325363
H   38.892498   33.515949   60.520897
H   22.306992   72.105194   61.653770
H   57.709259   17.424925   65.024399
H    5.201453   81.480888   23.145340
H   14.146039   33.121735   24.307529
H   14.247591   45.398228   78.943832
H   62.392349   27.767677    6.694305
