100
TIME:    4.871, STEP:  4871
H   87.916908   75.325844   94.686478
H   65.950111   68.817490   85.238098
H   63.482727   24.342949   66.169212
H   82.294189   31.966053   73.167976
H   51.541946   63.189636   33.630890
H   52.488605   95.930977   61.138477
H   97.681847   90.250519   71.371552
H   37.035301   10.005929   60.955822
H   33.889458   17.966736   93.474464
H   41.728004   86.323708   98.431122
H   47.166473   62.237797   70.549377
H   69.930031   67.848732   46.205620
H   33.238449   67.031242   41.014893
H   13.898204   90.062080   27.925287
H   39.750175   34.929718   16.627316
H    5.671034   85.693497   28.705841
H   32.410378    4.150442   16.814695
H    5.231060   57.810154   30.671484
H   21.135876   82.697891   19.985849
H   61.281250    2.374838   47.972939
H   75.224678   71.294525   25.037304
H   29.367859   50.550308    4.467630
H   20.709160   55.006691   92.984436
H   66.472809   95.099579   45.310516
H   55.368927   99.863953   72.513283
H   24.341555   82.658096   32.371639
H   42.047195   39.995487   96.613869
H   21.541271   83.801529   27.781206
H   17.086647   91.027458   26.916862
H   87.769501   70.282372   70.619179
H    7.758832   58.846722   24.000923
H   73.315163   17.932716   48.331169
H   13.463593   12.096964   36.615105
H   83.912521   27.324554   66.543678
H   59.691559   90.709732   21.338524
H   96.065704   66.946266    4.113100
H   46.991005   26.149765   92.281174
H   62.662533   69.813713   66.173210
H   39.466602   75.286797   72.276260
H    4.400049   56.177254   21.274107
H    2.353871   23.319708   57.104351
H   93.842735   30.470461   31.643045
H   53.197613   92.709885   53.310585
H   68.312653   94.402405   56.996078
H   34.132763   39.706207   72.935081
H   15.245024   55.823689    2.948987
H   79.789352   89.738914   72.223640
H   56.499554   45.539688   69.967812
H    7.416431   29.033527   50.168983
H   28.037159    4.871084   42.979568
H   43.172993   99.379456    4.774989
H   41.853386   11.746611   54.290894
H    9.910529   50.252441   19.968493
H   63.887177   27.728882   46.759666
H   52.958893   85.473640   41.777813
H   99.660934    7.409904   26.806473
H    5.053009   48.996162   19.260216
H   63.350723   16.881720   88.088852
H   74.441505   44.581131   37.533646
H   37.582783    2.188413   25.067757
H   66.967072   52.046909   34.614273
H   26.033960   82.603500   74.957962
H    4.752084   74.894699   99.451355
H   77.523048   68.297562   94.890274
H   25.660063   71.806213   49.184299
H    2.112820    0.121354   34.194862
H   96.758606   16.766251    2.233414
H   43.892555   96.114334   99.064568
H   99.670761   99.787346   54.733093
H   29.073111   93.139160   91.476196
H   67.356270   63.977188    3.715627
H   72.330170   89.865799   13.253181
H   89.392654   77.366096   36.856415
H   22.979160   41.133114   13.735378
H   97.022469   35.584141   70.652802
H   40.812424   19.757727   68.171829
H    9.209818    4.360023   77.194695
H   60.828762   32.217289   83.447044
H   95.096001   39.211063   72.031288
H   60.642151   43.668850    1.280317
H    6.189910   79.674393   71.117241
H    6.801679   76.038895   79.467308
H   25.976107   88.579651   93.832840
H   85.266678   28.981356   18.526794
H   15.151696   44.201553   75.563622
H   39.186230   87.974480   80.040161
H   92.477791   49.191544   55.811630
H   34.361053   15.310707   45.087036
H   56.770859   22.962603   88.352303
H   35.676647    8.868149   98.344925
H   23.364098   36.451878   36.328411
H   38.703571   61.824982   26.340773
H   97.694176   73.675743   95.686447
H   18.028038    8.694398   55.244175
H   72.374138   13.414597   28.015923
H   96.246185    3.381722   15.855715
H   75.965385   47.217281   57.053345
H   24.745207   57.711334   78.088524
H   76.669952   57.847263   37.039940
H   41.767025   53.634106   28.501295
