100
TIME:    6.833, STEP:  6833
H   55.234207   95.402168   92.890213
H   11.765591   75.135002    8.947383
H   97.222336   65.497337   43.133526
H   82.623505   51.131195   65.624390
H   33.968491   20.452421   80.434952
H   22.056889   93.805397   55.441708
H   94.853119   22.734150   24.802652
H   82.825966   79.742950   80.810692
H   85.659691   29.328400   69.974968
H   88.125984   14.496552   75.257332
H   64.666016   41.183018   81.560036
H   95.042969   66.193619    6.549022
H    8.038834   48.383961   46.060234
H   16.751961   84.014656   77.234825
H   63.599617   59.675591   22.304020
H   26.784126   14.089962   65.842285
H   74.637856   33.920536   95.423286
H   47.187969   62.345261   62.656586
H   51.690006   65.008209   23.351238
H    8.426163   60.703129   81.555046
H   58.796814   75.970978   71.781593
H   17.466705   53.154892   37.385193
H   94.511803   39.049873   36.851166
H   84.173958   18.570772   99.594940
H   85.197456   44.269432   87.003151
H   15.389080   24.663403   47.867569
H   72.862419   58.439056   35.545444
H   55.992317   75.381050   92.634720
H   59.747932   69.035225   34.171753
H   63.000614   21.723351   26.592171
H   84.977226   34.784119   68.773796
H   97.197174   63.719669   66.699028
H   51.665051   68.547585   13.367558
H   66.812309   47.518997   83.888321
H   10.901480   42.316048   40.777054
H   66.618660   20.618664   97.943642
H   35.172813   54.296509   46.878941
H   81.571526   33.905811    4.628249
H   56.650921   32.535698   82.144043
H   19.601559   72.501358   75.641403
H   68.264496   90.640648    3.328006
H   24.366074   68.398758   28.797249
H   70.092072    4.477083   95.029350
H   43.032963   27.334311   48.829788
H   63.942520   62.294476   40.828800
H   89.923515   93.245865   10.921045
H   95.117477   96.439163   91.054482
H   56.604671   65.747665   91.365265
H   64.762398   66.539894   71.904465
H   69.199463   34.736065    5.768075
H   43.032406    9.961271   25.456516
H   37.210575   29.687637   25.492500
H   50.610332   61.628784    6.018190
H   18.456650   95.714325   33.336868
H   96.740860   57.417160   58.468105
H    2.106252    5.346070   60.015350
H   29.434504   92.382896    5.862582
H   17.256525   31.595343   37.553940
H   29.181259   27.483158   86.914513
H    8.112160   52.996082   69.263817
H   90.731163   60.803764   81.641281
H   56.401405   64.341476   86.182297
H   37.952785   41.011757   64.911133
H   12.249126   78.985336   41.624737
H    3.535319   15.103512   31.896971
H   81.585541    2.584705   50.204132
H   39.344498   84.596436   96.958694
H    8.363733    8.323489   92.859512
H   97.456734   58.810532   31.678837
H   68.817833   91.821709   87.344788
H    5.053155   30.484344   80.183571
H   10.563998   24.746323   56.907066
H   61.466888   80.319412   86.550110
H   79.786873   16.959255   97.160492
H   91.617668   38.383320   19.385902
H   87.193474   45.504414   36.155350
H   87.364838   34.387302   11.925756
H   53.007092    3.926644   91.800133
H   89.180672   33.448048   93.915779
H   64.428238   36.794258   32.252037
H   44.584198   99.972183   88.381821
H   54.038925   88.783783   15.355995
H   50.078560   21.389929   80.683929
H   20.249519   96.873436   39.327892
H   19.618925   21.476616   85.369728
H   94.027451   60.043777   16.287659
H   23.515413    6.537803   49.367210
H   65.922447   58.291264   24.730278
H   97.486191   13.722008   72.305672
H   62.210705   28.147694   68.478165
H    3.657179   42.393822   77.762253
H   83.871704    9.386479   63.718048
H   23.461811   32.543354   47.410957
H    7.650231   27.722986   87.537735
H   38.454674   37.671356   73.101501
H   58.299377   25.903635   14.515814
H   20.230967   59.811539   44.217453
H   25.088053   24.556545   41.708878
H   83.204796   66.308754   72.702492
H   63.633503    3.289696   39.496113
