100
TIME:    6.586, STEP:  6586
H   71.938065   18.052881   93.116348
H   18.586395   61.751247   93.373573
H   92.974762   47.726875   46.033710
H   82.582047   61.307281   79.162354
H   36.180847    0.654366   87.132324
H   25.887997   94.072990   30.979565
H    7.798654    6.055043    5.486902
H    2.239685   58.373669    3.488507
H   91.731422   53.076370   85.521767
H   94.872353   10.949526   65.586281
H   87.641357   31.244375    5.353008
H    4.469902   53.812717   24.130116
H   23.800461   63.322079   70.603447
H   28.981167   84.775978   58.438656
H   60.599556   81.738853   34.181774
H   36.715729   35.693459   86.345215
H   94.500069   17.584148   72.937904
H   41.905827   74.364349   71.219276
H   47.843822   54.645744   10.339038
H   15.080193   65.948280   64.738121
H   73.454147    0.559462   78.486504
H   93.786575   52.826996   58.419540
H   97.809608   41.058708   43.917892
H    7.123234   15.615938   17.939516
H   94.031807   63.858398   85.178993
H   16.523619   31.960815   71.098549
H   94.160591   68.706619   30.643965
H   76.833725   63.851921   84.471237
H   54.377220   46.625225   45.847870
H   53.529316   27.836540    6.957023
H   75.257179   12.635303   88.315651
H   81.601379   70.545105   89.565071
H   34.265827   86.619560   91.115845
H   56.376167   70.155136   94.294312
H   17.048981   61.017433   25.748484
H   45.147121    1.272143   98.720039
H   11.482446   63.341919   27.416235
H   91.781532   38.426632   87.197426
H   67.077087   37.917717    6.080263
H   42.865726   95.623688   56.208088
H   85.145493   82.164345   97.509010
H   45.181824   67.430145   16.187382
H   67.966400    2.995346   77.187279
H   58.804012   23.188498   24.680143
H   85.368828   72.040573   19.692144
H   93.112022   88.534714    9.917570
H   93.187790   83.006729   88.683830
H   56.591145   63.203644   76.082291
H   57.542831   86.997597   81.756424
H   64.013428   30.976309   23.038462
H   43.049366   33.808105   22.853134
H   25.204144   52.608330   41.706398
H   45.486485   60.196594   20.363646
H   24.175987   99.743301   22.437977
H   16.407784   35.770363   56.366932
H    1.798614    5.605890   68.423813
H   13.776454   99.509926   82.370796
H   35.648102   54.921211   43.915878
H    9.701440   17.045132    5.876049
H   24.411087   34.010143   76.289085
H   75.150444   72.290909    0.900394
H   65.167915   66.640518   97.357147
H   21.183580   57.866371   81.848663
H   95.288193   77.639832   48.331532
H   93.731934   34.831120    8.894305
H   96.759216   14.863379   35.599564
H   59.161484   76.056061   85.033829
H   25.425850   94.197121   81.051483
H   85.147438   76.558380   47.170986
H   63.812775   79.399345   87.864899
H   12.896839   47.289963   83.145943
H   30.921606   32.948608   38.817909
H   77.571487   92.536652   92.881897
H   85.225426   32.591763   11.836035
H   79.707878   38.030926    0.661050
H   81.355415   29.673199   52.774406
H   64.932220   55.766506    7.545304
H   41.402584   20.077471   78.160408
H   77.334953   34.173565   91.160698
H   76.541550   50.249306   53.531364
H   39.750557   97.416855   73.618958
H   35.505257   87.181992   36.019863
H   34.454498   17.259192   57.161545
H    3.256398   75.737328   61.886768
H   31.646235   36.927307    9.313517
H   99.710983   50.970100   99.134888
H    7.018833   24.496941   37.589333
H   61.950005   78.056030   27.291260
H   92.360458   27.473936   74.325813
H   84.047989   38.310589   59.648514
H   93.548882   29.057289   72.546066
H   65.596207   90.809799   59.012550
H    7.628818   25.131771   28.310068
H   83.778267   12.737859   70.882874
H   42.724861   59.796806   67.425507
H   37.898209   35.657013   27.273666
H   39.836327   45.636627   58.422516
H   25.564821   12.334878   46.666893
H   94.971367   65.242149   93.390099
H   48.292110    9.627903   63.291195
