100
TIME:    5.050, STEP:  5050
H   75.811684   58.910591   94.522598
H   61.006416   78.516418   96.523926
H   66.560699   37.220734   64.068825
H   82.324234   24.590797   63.356972
H   49.938660   77.537277   28.777782
H   49.712215   95.737053   78.864983
H   88.299751    2.336849   85.369583
H   22.966255   25.491299   44.520084
H   29.489296    0.756378   82.207756
H   36.836205   88.893883    5.440658
H   30.516327   69.440292   53.307384
H   63.098808   76.821129   33.463997
H   21.816055   56.207008   23.228516
H    5.035401   89.510353   41.547760
H   41.927040   18.941111    8.022648
H   98.473541   70.037552   13.846809
H   18.016304   15.989703   33.109772
H    9.058791   49.101330   24.466600
H   23.923874   90.206299   29.415743
H   56.459099   98.573280   60.160103
H   64.602562   53.474564   20.178963
H   46.528763   50.787933   89.224152
H   18.319252   53.550896   87.863205
H   49.840618   97.240936   32.015800
H   48.966705   85.669266   73.835243
H   23.525572   77.367523   15.539190
H   26.611361   32.553997    0.164642
H    6.437953   92.156647   33.698616
H   20.978783    7.267737   18.455906
H   94.633316   65.852165   84.849373
H   14.803939   74.898270    9.839012
H   84.617378   12.987447   31.760231
H   26.072132   99.000801   52.740837
H   91.475555   10.920333   59.002495
H   55.242233   77.178757   32.237869
H   11.625714   80.966148    3.550034
H   64.158752   19.593906    6.385591
H   55.264744   66.538857   78.805580
H   31.910397   71.386467   54.929626
H   87.539787   39.419220   35.357655
H   90.120377   29.461088   61.321514
H   77.755241   38.504517   40.051426
H   54.739445   93.783295   66.239540
H   56.882915   97.406860   74.497849
H   18.605967   32.644371   88.252342
H   12.935349   59.237843    3.676628
H   81.187790   99.473351   73.941643
H   56.509113   47.383331   81.043327
H   12.648300   14.209270   43.027939
H   31.791363    7.595579   30.460548
H   43.159336   82.098373    6.661992
H   50.552650   95.136871   42.539375
H   13.623422   51.290344    9.572393
H   59.742393   24.807732   54.658653
H   38.706848    1.162266   43.300526
H   99.884903    7.221613   20.712891
H   16.400620   43.831230   36.284554
H   50.021866   99.977119   83.478378
H   88.559715   52.144165   23.791401
H   25.771175   15.947392   19.976570
H   78.258362   43.723202   20.658577
H   19.681585   80.937393   66.859589
H   16.904425   62.680222   87.176788
H   89.814003   69.272644   90.031250
H   32.764992   57.509846   65.853569
H   91.116631   91.222710   44.778740
H   82.397308   22.954746   10.875908
H   31.527855    6.351684    7.621802
H    8.592369   86.925545   43.505989
H   32.699493    2.141811   91.099274
H   61.672386   51.798218    1.568218
H   57.570694   83.925171   26.358753
H   77.721710   68.511147   32.266426
H   19.039227   29.804817    3.100210
H    5.652892   35.839520   84.222015
H   45.044609   31.229967   56.127590
H   25.461874   88.845894   80.360298
H   69.238510   20.512875   93.331703
H    3.680078   38.685284   74.027885
H   51.863678   33.919392   85.859283
H    9.692579   81.526230   81.815834
H   20.232727   77.207901   64.499657
H   37.298805   91.573181   10.879685
H   97.582214   44.298752    2.178222
H    6.435671   33.004494   58.211525
H   35.066029   94.548775   92.470413
H    4.432821   36.176788   64.347015
H   37.242599    0.979810   43.225639
H   60.485458   12.996584   86.888313
H   19.850519    1.503136    4.743775
H   30.689507   46.116665   40.108562
H   51.947758   75.287674   29.750830
H    9.168204   79.047310    9.528828
H   35.329605   19.552092   67.312904
H   69.279549   97.380669   32.128635
H   11.030929   96.313263    6.609844
H   61.757042   57.489788   46.758987
H   25.402090   59.235413   75.223366
H   68.142761   58.618862   22.046341
H   52.884876   49.041386   11.257674
