100
TIME:    9.263, STEP:  9263
H   90.903473   72.560402   90.665482
H   44.654282    6.811441   62.168163
H   38.993343   40.320808   14.606771
H   83.031372   51.015312   32.425606
H   12.194769   15.227299   14.548176
H   84.375854   91.172798   96.091583
H   67.494667   86.819954   14.831844
H   91.832764   89.969376   57.696701
H   25.925652   95.692169   17.013983
H   21.753397   49.387959   70.404640
H   38.633331   38.957840   47.488777
H    2.296410   87.997063   33.578056
H   53.078918    1.312100    4.576449
H   96.433624   76.524727   62.159687
H   93.114388   42.616005    5.444087
H   29.078655    1.552992   64.130920
H   79.231606   94.646889   16.635786
H   99.150192   44.101265   78.424393
H   89.541489   66.949448   51.371319
H   42.953243    9.103785   47.000694
H   14.597115   34.056511    5.830435
H   50.433178   56.380753   30.448242
H   62.067802   19.292807   67.325104
H   58.392406   47.640594   19.122942
H   98.287216   51.558983    4.946956
H    3.929957   53.030258   19.192091
H   63.321205   57.426662   83.758896
H   50.956108   88.805237   72.959526
H   12.586139   89.504051   19.304913
H   56.177345   61.580215   19.770432
H   80.613640   52.686329   76.520020
H   50.628742   96.586624   41.741753
H   22.830055   90.757614   32.281151
H   69.485840   24.823914   81.516350
H   50.425316   58.330910   88.620987
H   77.854370   10.950246   90.305397
H   68.240417   65.303963   38.353413
H   81.134468   89.435692   76.104790
H   54.079342   79.592674   46.658661
H   90.722412   45.012543   66.829300
H    2.191556   74.016953   60.576748
H   19.578842   77.928024   52.852459
H   91.004547   19.054680   70.547997
H   87.873817   68.128517   86.420967
H   53.158623   66.433540   48.773014
H   58.558022   39.588360   20.793291
H   14.111442   28.592375   14.385622
H   56.752987   90.775894   41.719105
H   35.796394   65.287514   74.970428
H   20.214071   71.726097   35.863712
H   42.865467   75.360390   51.075661
H   55.311031    4.200976   65.977760
H    1.005688   75.718750   64.893539
H   62.177635   56.073318   40.566170
H    3.260620   70.370651   79.125992
H    5.132814    2.789947   77.292404
H   83.485748   22.266777   36.975914
H   36.313416    2.110722   74.961205
H   20.831928   30.164007    0.364434
H   47.755627   39.773518    0.148842
H   44.019527   47.798069   92.181984
H   70.155937   41.723373   76.234749
H    2.925225   75.192406   98.278748
H   79.114075   92.222488   75.650604
H   99.986420   21.022686   58.191608
H   32.308022   81.782494   93.885216
H   44.380966   68.605865   14.279617
H   40.507080   47.298653    9.027573
H   18.567934   84.206238   79.274017
H   18.151703   13.901808   82.196945
H   27.883457   65.145256   51.039589
H   10.482041   44.032616   35.020138
H    3.026946   60.122936   24.245670
H   26.295155   63.163288   52.777351
H    8.679360   41.954510    3.628594
H   44.641983    1.243726   72.646042
H    8.060630   24.063984   55.025612
H   67.164619   45.042671   26.010582
H    5.709107   26.310368   21.032106
H   45.258781    4.419333   22.905388
H   92.154137   25.112345   33.620308
H   36.384178    4.546971   12.061682
H    3.778449   62.028355   12.103833
H   87.428566    4.813932   17.385876
H    1.300293   69.462814   49.809647
H   38.103947   49.300331   85.033951
H   85.809669   29.856606   65.238762
H    5.003176   63.841408   99.535477
H   47.918949   78.423439   52.431404
H   47.365582   28.171227   55.344879
H    3.102886   73.604340   29.079735
H   63.667095   92.145889   10.025720
H   79.229721    5.449720   35.326591
H   42.498131   75.148514   51.387386
H   96.437683   20.006214   28.938780
H   59.007416   29.945635   89.002762
H   27.348728   99.263527    4.464201
H   20.397577   44.793201   92.922874
H   67.445091   76.802071   69.165016
H   14.572756   40.930523    5.405205
