200
TIME:    0.898, STEP:   898
H   29.689978   60.291233   26.590969
H   33.828674   42.484207   16.609844
H    4.346555   97.938705   77.758232
H   40.022293   84.664619   27.293159
H    8.223989    0.406168   44.198044
H   68.212708   34.955841   46.073593
H   12.892470   54.837257   62.387463
H   17.634039   17.298882    1.716436
H   14.149931   77.641647   31.667488
H   87.698349   65.680794   70.118324
H   35.128300    8.650160   13.755089
H   33.498718   59.585808   44.094864
H   27.323971    8.846399   34.323479
H   73.303551   55.983074   73.973015
H   87.853897   77.009911   41.359596
H   10.121130   98.855209   40.128555
H   15.165522   38.534836   83.489822
H   20.937878   14.799827   31.805887
H   86.918259    5.880328   52.170197
H   92.149651   70.668419   11.963283
H   65.981758    9.604748   95.694839
H   75.380257   73.965279   45.217957
H   75.301155   57.757263   33.347862
H   22.545399   94.058250   89.522804
H   31.846436   39.167725   21.931149
H   18.116407   91.538300   85.224358
H   11.638436   71.999733   75.538010
H    9.611699   97.273338    2.462644
H   38.782284   36.529488   34.485405
H   63.315063   38.391773   75.864578
H   12.502420   78.939552   16.999290
H   19.960545   78.928207    9.803619
H   11.224510   23.143904   81.216400
H   74.649178   64.295799   49.791443
H   16.411127   62.612053   29.213308
H   11.562304   34.920090   87.016075
H    5.150041   60.227020   90.894753
H    0.367806   61.776104   85.583084
H   28.717545   22.839069   59.057816
H   83.772430   36.982632   37.993256
H   80.700096   74.485657   23.364731
H   46.090714   29.308783   20.319607
H   64.854324   72.666283   74.761314
H   35.815384   95.192116   42.280956
H   51.259529   96.370697   68.109184
H   31.800112   96.714256   49.844090
H   92.373901   93.974640   10.605216
H   74.096550   65.540565   23.992752
H   12.527564    3.782284   61.640736
H   38.570423   20.770918   77.875412
H   62.555435   62.167702    1.791875
H   95.985497   47.023418   77.688484
H   69.925011   75.605400   16.525639
H   12.613335   96.069412   91.447258
H   49.347153   61.751221   69.492973
H   96.871025   56.138802    0.194687
H    3.552675   19.235451   42.596272
H   74.597519   73.875763   93.426476
H   14.296705   87.188461   23.040684
H   27.884731   92.294350   54.830429
H   48.288467    2.538666   23.011284
H    1.762646   17.983637   54.110771
H   89.575043   38.836777   62.685703
H   40.069389   66.091103   18.358856
H   81.925812   85.888428   44.836903
H   12.927789   42.124443   44.690750
H   61.596535    9.282247   99.429665
H   93.656639   92.945930    0.298847
H   39.927216   14.745173   53.651390
H   41.449268   53.098499   50.947453
H   58.176506   87.972794   90.881958
H   13.647552    6.526507   40.158848
H   98.377579   37.038738   77.462357
H   29.302385   94.501503   79.729042
H   87.157181   11.523067   36.673584
H   69.945488   95.846672   58.577721
H   92.646423   54.445976   62.837917
H    2.184001   17.951761   25.467262
H   16.536993   59.003868   20.352152
H   58.359882   86.997223   63.056427
H   71.295143   18.981180   91.364685
H   55.569813   56.756237   67.515617
H    8.432538   20.884008   71.027473
H    3.216796   83.375923   15.297034
H   15.476707    6.281967   39.134880
H   43.204582   62.751953   14.085453
H   65.345924    4.155235    3.279864
H   69.859535   94.054749   36.260300
H   85.826187   73.658722   79.540405
H   20.148407   15.541477   47.626461
H   13.660435   40.573086   77.827744
H   79.472038   94.308624   12.725285
H   78.518768    9.441074   76.989639
H   30.521921   70.793800   87.172157
H   41.797310   48.025490   95.344734
H   42.022743   42.420822   98.123955
H   88.231407   91.519341   26.667641
H   96.522163   39.991657   56.422462
H   22.108086   63.186584   55.213104
H   78.645332    8.618992   27.411051
H   39.223904   98.619385   99.924110
H   15.039325   86.611511   62.235039
H   36.819122   13.122563   39.697437
H   53.493156   69.154358   16.293007
H   24.466490   18.825539   46.420628
H   13.473356   94.557587   13.083959
H   89.112755   36.938099   51.598042
H   60.873623   59.538239   93.298286
H   89.518654   31.783829   30.950245
H   25.504038   18.886080    8.757685
H   55.851776   90.348839    1.258802
H   12.414103   79.891785   98.006233
H   45.665688   87.910294   79.622948
H   60.995232    5.211743   57.986794
H   41.892159    9.368264    3.701009
H   87.185448   86.549355    8.618734
H    5.521153   17.708124   91.850876
H   37.432720   59.383923   20.825737
H   43.850754   82.417725   51.020184
H   88.147301   59.807552   73.889755
H   47.422127   26.131977   65.958321
H   89.898666   11.892490   67.542862
H   48.100044   94.070877   43.549458
H   94.383102   43.640976   89.050102
H   57.227379   92.660927   71.050819
H   71.828354   80.355698   12.826946
H   79.031013   52.262253   45.642807
H   61.035927   92.730675   40.559872
H    0.565227   28.665607   69.895103
H   99.638153   21.030582   77.711586
H   75.170525   61.691437   28.557232
H   56.443672   92.577560   24.844242
H   90.289131   14.607603    2.270542
H   68.656113   29.873325   57.805172
H   36.931690   89.472412   26.180573
H   44.832764    0.782368   73.987709
H   69.982086   88.241249   88.095085
H   96.830864   43.676022   72.801659
H   63.512238   53.535553   71.394463
H   43.804375   77.532768   77.174133
H   83.193359   43.718529   36.165192
H   26.946972   61.003540   61.585934
H   33.853134   68.871071   77.190201
H   27.562111    2.709144   89.028175
H   71.231033   47.944519   70.584869
H   70.049995   73.311661   98.332024
H   60.293694   93.896233   42.570492
H   24.685356   48.925423   65.049828
H   82.775848   37.319626   91.403214
H   30.437191   95.858620   65.373138
H   53.028358   72.484787   46.376766
H   61.486000   88.902229   27.532097
H    6.743482    7.234875   80.366577
H   27.303646   16.246317   59.691616
H   39.704723   71.257309   72.656654
H   83.035469   45.160450   74.305954
H   66.198898   80.617371   88.547043
H   55.401100   26.102539   25.139732
H   82.266151   99.254837   78.202202
H   56.302578   30.096010    3.492110
H   60.419380   57.677132   65.920692
H   12.709372   19.646370   29.843605
H   93.542992    5.881226   36.958454
H   35.427536   39.509716   43.047707
H   52.653908   44.415443   16.289831
H   23.250431   43.502796   58.704891
H   63.569374   86.924263   59.197186
H   24.207020   60.870178   75.221878
H    3.014460   26.030375   35.303200
H   56.500931    5.494166   82.993622
H   66.794556   13.458964   35.920853
H   23.431265   41.006699   59.478722
H   50.386452   49.179485   71.909744
H   63.123154   58.800339   89.505524
H   40.855164   90.086685   68.292290
H   21.218803   51.220032   23.930855
H   28.658123   73.477280   14.432106
H    7.561777    9.828377   73.293961
H   58.773273    6.082786   61.439800
H   55.000671   61.513420   95.667244
H   69.404617    8.769567   26.420876
H   32.499619   30.909267   93.637543
H   35.337543   89.472153   19.103424
H   65.810310   26.437870    1.397375
H   94.032104   59.794876   75.685959
H   13.035284   41.776047   87.247414
H   54.263916   93.254021   13.844873
H   58.809219   95.096382   48.551071
H   87.562355   64.107582   74.063583
H   61.579079   54.693951   74.016373
H   79.252670    9.254501   74.602608
H   42.258774    2.811065   16.243261
H   18.716187   33.178177   72.880669
H   23.608358   89.791489   46.573986
H   62.313820   24.865223   19.663898
H   76.934586   11.998049   20.551453
H   13.835078    3.501734   25.675886
H    9.786312   84.328712   28.409760
H    3.138746   13.453032   48.588997
H    1.144824   12.699808   88.607117
