100
TIME:    0.727, STEP:   727
H   68.158363   55.351692   98.480423
H   81.047386   44.162319   23.859098
H   92.255310   26.207001   14.803696
H   81.598633    2.696802    0.313134
H   88.659378   31.029778   45.992836
H   16.742931    0.422403   50.743267
H   14.868870   10.427387   47.305119
H   62.745529   51.495991   41.443642
H   35.756950   16.395447   54.325935
H   54.972801   26.823376   36.158997
H   32.631256   95.495117   69.720375
H   28.092655   60.131432   41.179970
H   97.018417   17.723083   52.870506
H   19.084873    2.835759   12.564495
H   89.344383    5.085951   15.825727
H   72.292953   48.148952   72.692856
H   65.616829   30.074661   39.546410
H   16.679726   59.346664   74.342575
H   56.584846    8.850474    1.665169
H   72.970161   90.289520   65.785439
H   21.135330   83.842255   37.511742
H   32.057423   45.059494   57.353718
H   76.037529   88.709572   11.549206
H   51.495361   45.400974   53.082253
H    3.582872   28.517941   41.926628
H   43.325497    5.947897   21.031778
H   99.388351   12.255954   14.392653
H   71.198082   90.373093   90.804245
H   26.979126   15.051263   22.806347
H   28.869173   72.846573   41.182644
H   44.699863   87.236565   51.883080
H   11.660324   32.425781   31.962029
H   21.566357   15.291544   63.290855
H    8.819448    7.097507   41.123329
H   62.701103    3.964463   68.996597
H   35.765259   41.595104   18.142828
H   49.527386   77.911476   65.750069
H   33.942284   45.648029   73.743034
H   18.036644   64.988686   72.447937
H   94.718346   44.124134   95.232719
H   85.559204   81.125877   59.470867
H   66.282555   44.486694   36.955723
H   17.502913   67.859543   53.984344
H   32.934937   24.954958   51.814827
H   93.593758    3.208472   18.318876
H   68.666481   76.870903   86.169228
H   43.756519   64.960022   33.835396
H   56.278240    2.868544   13.560531
H   86.281303   72.238388   15.473258
H   41.137302   41.814800   32.817383
H   43.489155   99.455971   61.082249
H   40.463142   96.278519   26.335571
H   23.959940   26.224121   60.648308
H   59.854237   95.341301   63.896992
H   82.883453   22.237177    6.575165
H   94.475876   11.767902   67.878006
H   42.339813   68.569664   25.131310
H   71.924744    8.230995   94.828812
H   47.613213   69.486008   55.672085
H   11.044923   83.667465   42.931969
H    5.560036   44.761566   57.712044
H   73.108490   21.178543   62.462372
H   23.544544   57.577721   83.682961
H   92.960884   45.749184    7.400816
H   61.179977    2.779306   63.266289
H   56.684547    6.131769   89.171776
H   29.240461   73.495361    2.161203
H   30.147057   59.115158    0.957404
H   93.135063   97.548752   14.635498
H   45.113129   84.709618    0.201993
H   98.945824   45.937832   53.428196
H   14.022905   27.397942    9.848711
H   59.590149   82.345863   43.107723
H   14.189267    3.373046   60.000832
H   97.224167   29.678133   56.509571
H   42.846455   54.167435   47.011311
H   32.961559   63.534050    3.898137
H   66.136108    3.183522   54.590832
H   96.398445   51.372898   25.794765
H   63.872086   69.361717   58.289459
H   25.108692   36.802807   23.439522
H   95.870201   48.975418   25.986855
H   63.794437   19.391462   99.143127
H    0.179853   74.371925   97.026680
H   16.930460    3.408713   77.278008
H   34.560078   35.758167   92.268227
H   15.709417   50.494102   58.209270
H   67.658432   47.088524   88.183372
H   70.769966   53.693733   22.252407
H    2.059638   79.370544   50.202297
H   53.774387   12.688108   48.814648
H   32.077595   50.183205   47.374985
H   31.928997   49.413307   75.157433
H   17.494661   57.331779   75.835732
H   44.023121   84.609344   32.791222
H   53.968811   67.022636   29.898613
H    4.896841    9.401401   95.378372
H    9.534451   22.427643   44.403908
H   74.079491   39.984104   84.154152
H   84.390610   60.031391   27.665705
