100
TIME:    6.618, STEP:  6618
H   69.774002   15.118414   93.087051
H   17.702728   63.485378   95.391151
H   93.525055   50.029121   45.657978
H   82.587418   59.988922   77.408447
H   35.894226    3.219278   86.264648
H   25.391659   94.038322   34.148716
H    6.121560    8.215899    7.989374
H   99.724541   61.141979    0.550336
H   90.944801   49.999710   83.507607
H   93.998329   11.409060   66.839211
H   84.664795   32.531971    2.270619
H    3.248476   55.416721   21.852406
H   21.758469   61.386776   67.423759
H   27.396816   84.677345   60.873959
H   60.988228   78.880455   32.642956
H   35.429108   32.894630   83.688965
H   91.926826   19.700603   75.850990
H   42.590153   72.807220   70.109901
H   48.342113   55.988274   12.024829
H   14.218132   65.268593   66.916832
H   71.555222   97.373871   77.617851
H   96.854446   52.869476   55.694443
H   97.382362   40.798454   43.002365
H    4.149967   15.998751   15.562918
H   92.887276   61.320557   85.415321
H   16.377745   31.014771   68.089272
H   91.401314   67.376541   31.278975
H   74.133530   65.345573   85.528854
H   55.073021   49.528545   44.335175
H   54.756367   27.044548    9.500858
H   76.516457   15.504748   85.783913
H   83.621887   69.660828   86.602669
H   36.519978   84.278252   93.998657
H   57.728218   67.222519   92.946167
H   16.252594   58.594582   27.695505
H   47.928860    3.778569   98.619453
H   14.551660   62.170044   29.937719
H   90.458778   37.840939   89.455727
H   65.726501   37.220451    2.979286
H   39.851810   92.628082   58.725910
H   82.958481   83.262489   98.262917
H   42.485046   67.555634   17.821049
H   68.241791    3.187317   79.498802
H   56.760799   23.725607   27.808928
H   82.592949   70.777878   22.430548
H   92.698936   89.145065   10.047575
H   93.437790   84.746964   88.990959
H   56.592854   63.533234   78.062271
H   58.478134   84.347206   80.480057
H   64.685303   31.463491   20.801035
H   43.047169   30.718699   23.190414
H   26.759686   49.638847   39.605812
H   46.150303   60.382141   18.505125
H   23.435020   99.221329   23.849964
H   13.859810   38.574806   56.639149
H    1.838470    5.572229   67.334457
H   15.805079   98.586586   85.414253
H   33.265289   51.899239   43.091660
H   12.225183   18.397427    3.419472
H   22.299515   36.469860   75.378929
H   77.168999   70.802628   98.405350
H   64.032173   66.342667   95.909393
H   23.356066   55.682777   79.654327
H   97.485458   77.814148   47.462635
H   95.001953   32.275211   11.874408
H   94.793396   13.272619   37.491653
H   56.594101   77.162506   86.578751
H   23.215401   96.027199   82.581268
H   86.742165   74.259064   45.163906
H   64.461143   81.008720   87.797516
H   11.880665   45.112717   82.762154
H   28.283056   31.886597   41.160927
H   75.485062   90.953644   92.061584
H   84.520836   30.566528    9.934790
H   81.250847   38.076580    3.086926
H   82.111763   31.724102   50.621330
H   67.838470   52.996731    8.112833
H   42.906002   17.985064   79.927498
H   78.869621   34.079571   91.517632
H   74.972214   48.506142   50.774529
H   40.376778   97.747910   75.531555
H   37.906380   87.389511   33.342861
H   36.478668   17.794348   60.209152
H    5.457936   78.475609   58.964161
H   30.088007   34.925598    6.211527
H   98.974655   52.145638    1.357085
H    9.156054   22.170280   39.115211
H   62.464653   75.495483   26.959473
H   93.024521   25.692320   74.064095
H   81.218887   36.993938   60.792313
H   94.858452   30.785194   73.221848
H   67.963882   93.216537   59.622169
H    9.680032   26.091976   30.784678
H   86.871040   14.679204   73.040588
H   42.171638   56.930351   68.160858
H   40.541275   34.393341   25.620834
H   37.296288   47.473053   56.582184
H   25.503054   13.918252   46.024559
H   93.446953   65.380333   90.709923
H   50.279659    8.806736   60.208431
