100
TIME:    2.593, STEP:  2593
H   41.967926   84.230064   96.772049
H   29.141289   45.333588   41.565601
H   24.326124   60.454742   92.899284
H   81.911835   25.819151   98.031311
H   71.945786   80.597900   95.398560
H   87.809944   98.398903   35.539211
H   17.071686   36.429634   93.228828
H   16.081612   12.929958   70.114098
H   89.887047   36.987091   36.866802
H    3.981749   53.614998    9.227519
H   59.060486   70.577545   89.978592
H   56.874931   53.664307    8.356791
H   78.321022    4.827200   67.405052
H   26.690926   97.083504   54.569454
H   12.040577   38.409729   26.128687
H   97.264816   84.935760   17.799898
H   15.593652   53.476448    9.439370
H   56.556023   68.603020    9.649685
H   85.652046   87.132507   99.973160
H   22.659370   50.748035   92.876167
H   10.404327   98.075348   86.864517
H   10.973785   47.526230   98.460403
H   51.123741   73.533516   58.161743
H   78.123703   67.780670   14.494477
H   36.842644   80.524689   55.693275
H   34.769390   50.344837   46.129501
H   38.481468   34.688847   51.421658
H   13.752415   77.472191   52.483936
H   67.553009   84.349403   34.598991
H    0.421234   26.663528   89.524986
H   18.105387   54.574215    4.229041
H   29.480659   80.869484   59.217064
H   53.005733   78.766258   31.394873
H   87.661232   36.089706   62.511963
H   16.316341   62.909210   82.623940
H   98.005234   88.178337   11.726285
H   28.501778    9.574179   12.783462
H   56.816063   11.494785    5.423100
H   35.621727   24.919027   93.031586
H   18.962160   69.436028   42.046185
H   58.036900   45.154736    3.435235
H   98.577080   28.233101   24.622305
H   33.575863   79.049393   88.768608
H   13.778730   56.230835   34.264000
H   31.732389   29.584644   78.000832
H   44.634312   12.374287   93.698372
H   61.990520   65.853851   50.349060
H   56.377895   22.080687   29.018044
H   40.824944   17.697590   41.038528
H   80.267387   70.213402    2.307776
H   43.346790   19.306177   80.757019
H   31.146891   23.127789    3.835245
H   62.668846   37.043823   52.273018
H   16.646610   64.903770   46.237885
H   34.331703   85.821457   22.408216
H   96.810654    9.806831    4.354965
H   60.635288   14.727324    2.603246
H   32.976410   32.011108   46.766556
H   94.781883   48.329678   12.416822
H   87.907715   27.094496   89.859505
H   23.269224   57.983845   12.225764
H    6.883224    3.807575   78.030197
H   50.114918   30.330557   55.668381
H   21.095621   55.899773   56.743404
H   35.242374   53.746120   37.042114
H   42.053047   13.367165   99.503746
H   79.527077   38.009426   92.251724
H    1.249386   65.833618   90.162994
H   86.136864   63.469887   97.603188
H   82.918030   78.564034   96.273010
H   39.693718   18.971888   31.044971
H   60.161491   65.468460   46.469429
H   37.923660   90.046593   95.260490
H   73.127586   85.289520   49.098854
H   87.190453   32.334126   97.964462
H   86.957802   73.760612   21.453926
H    2.382135    1.802465   36.908405
H   53.804180   81.171242   57.643070
H   85.856491   45.902271   46.610191
H   72.359718   67.735184   97.532028
H   61.625187   56.107433   34.965763
H   35.879585   61.161819   69.952370
H   81.860153   50.537933   76.870361
H   28.545254   34.047943   26.587891
H   26.072151   86.690598   96.390266
H   91.611816    4.298790   21.849163
H   40.335335   14.820709   47.187607
H   97.697342   97.692734   68.779152
H    9.494371   49.797798    6.985798
H   37.082378    2.590523   16.911804
H   30.138885   13.446759   88.221146
H   70.146820   90.516899   82.930977
H   51.655659    5.329403   19.516788
H   97.850471   70.518532    1.651831
H   11.758858   17.464081   75.671410
H    8.092803   93.337105   33.517288
H   56.782089   16.487255   88.063576
H   16.385542   38.315521   14.546083
H   85.189018   48.027699   27.846970
H    0.275347   12.099930   47.942902
