100
TIME:    2.082, STEP:  2082
H   76.525299   31.091232   97.239883
H   43.355659   17.627104    9.332010
H   15.542532   23.691189   98.895363
H   81.826065   46.872276   26.041267
H   76.522766   39.638996    9.253603
H   95.731941   98.952507   84.933311
H   43.852398    1.923255   53.267967
H   56.245201   68.720520   17.031181
H    2.448433   86.117508   69.033714
H   17.944658   46.277794   89.218163
H    6.592453   50.016224   39.200726
H   76.377258   28.050371   44.729652
H   10.826858   35.743614   18.195332
H   51.992973   98.658546   15.680714
H    5.824397   84.054779   50.693428
H   17.812084   29.629890   60.217545
H   56.677765   19.682991   62.914093
H   45.635986   93.452827   27.366966
H   77.691063   65.697891   73.049286
H   36.425400   61.597897   58.084877
H   40.727798   48.948246    0.735697
H   61.983585   46.847939   41.976700
H   57.946327   77.689445   72.781570
H   25.601189   61.652042   52.447510
H   55.119377   21.052727   51.923309
H   37.112461   65.569351   94.026497
H   82.545937   55.932430   41.281345
H   56.868034   53.620434   35.591236
H   56.441940   37.987007   58.754845
H   80.826790   39.310654   48.901363
H   98.001717    8.749037   44.662449
H   97.216064   94.990288    6.522881
H   17.010582   16.153286   85.359955
H   66.070671   82.919937   84.040146
H   29.019997    1.536782   51.506714
H   53.576550   48.036587   13.482614
H   79.489532   28.289507   72.518799
H   77.937462   20.847576   69.361366
H   57.192795   36.052246   42.550667
H   67.091408   17.273134    1.841173
H   92.960075   27.622152   91.395554
H   44.502899    5.297914    0.616041
H   29.174322   75.985077   51.857750
H   46.409096   47.665565   84.300705
H   76.056877   49.744411   34.273071
H   51.226879    2.627735   91.624306
H   57.994434   38.064484   45.440697
H   56.350605   16.819498   97.400322
H   25.889326   60.017117   61.424416
H   69.553978   62.438770   38.046497
H   43.385777   68.639824   75.369125
H    6.314627   70.545807   37.382816
H   52.068497   34.080872   81.950859
H   28.478924   73.239021   23.688982
H   75.012756   41.024303   18.072950
H   96.171280   10.343866   21.750610
H   28.241648   29.471992   54.002998
H   71.026947   80.268234   59.928299
H   54.478867   26.738642   51.647667
H   21.628651   87.817108    4.393319
H   91.034500   81.748848   52.065861
H   25.017658    8.564867    1.149187
H   15.453197   65.176521   90.724777
H   86.006775   53.120056   70.616737
H   14.959487   94.557861   89.453827
H   73.444740   38.770576   69.289436
H   20.525927   20.343489   67.581253
H   36.547905   36.609558   65.734238
H   60.670563    0.187092   29.652992
H   72.563293   52.862640   97.349030
H   55.919777   53.740555   37.177128
H    2.297271   82.427460    9.055563
H   71.241272   15.322887    8.362278
H   84.371208   17.626104   79.469109
H   62.551399   31.606138   59.227764
H   74.879875   41.009460   55.836460
H   55.987762   46.093376   27.870512
H   29.796474   14.583361   29.420956
H   61.350296   47.403172   40.906548
H   97.420052   95.563538   41.554970
H   51.625225   50.820904    4.425358
H   97.537308   57.824600   12.681810
H   49.531048   42.007751   28.199986
H   93.392464   90.321022   73.262177
H   50.953613   18.653313   45.925842
H    3.371038   85.530342   86.363564
H    6.206808   51.974564   22.821226
H   89.471252   38.604492   74.096870
H   98.888863   78.249931   11.166212
H   82.261917   23.615784   98.645363
H    9.226685   85.853378   77.429764
H   32.334736   52.090885   73.192223
H   18.869041   90.016586   79.984207
H   48.461521   39.521420   67.195930
H   20.595081   63.237785   63.928764
H   65.886246   13.515697   59.910950
H   97.343338   87.162331   17.451813
H   14.509532   33.964661   22.723267
H    9.531624   45.824978   70.650528
H   68.540573   25.224926   97.159088
