100
TIME:    6.422, STEP:  6422
H   83.028885   33.091972   93.266495
H   23.115189   52.863827   83.033485
H   90.154510   35.927864   47.959339
H   82.554520   68.063873   88.151123
H   37.649780   87.509048   91.579163
H   28.431728   94.250664   14.738094
H   16.393620   94.981148   92.661842
H   15.129761   44.186077   18.546688
H   95.762856   68.844254   95.844337
H   99.351723    8.594416   59.165012
H    2.896231   24.645437   21.150295
H   10.729759   45.592197   35.803581
H   34.265671   73.239342   86.899345
H   37.101357   85.281471   45.957729
H   58.607613   96.388145   42.068218
H   43.309662   50.037453   99.958496
H    7.688046    6.737049   58.008339
H   38.398655   82.344635   76.904823
H   45.290081   47.765282    1.699265
H   19.498253   69.431679   53.572227
H   83.186142   16.886585   82.938347
H   78.063736   52.609283   72.385666
H   99.999245   42.392509   48.609970
H   22.361225   13.654024   30.119524
H   99.897530   76.863602   83.967812
H   17.271223   36.809296   86.521095
H    8.302273   75.523270   27.389540
H   90.672226   56.196953   79.050949
H   50.811241   31.745720   53.600433
H   47.240681   31.895500   93.919571
H   68.803383   97.929192    1.290798
H   71.246277   75.077026    4.747341
H   22.713810   98.618767   76.341431
H   49.446907   85.184799    1.203462
H   21.130463   73.434547   15.770005
H   30.890760   88.427071   99.235542
H   95.752632   69.347778   14.493665
H   98.560646   41.428310   75.623634
H   73.998840   41.491203   21.972662
H   58.312046   10.976833   43.304249
H   96.353928   76.536354   93.645241
H   59.002808   66.787018    7.814843
H   66.555023    2.011496   65.340721
H   69.276108   20.435812    8.645268
H   99.595207   78.511887    5.657829
H   95.229088   85.406662    9.251295
H   91.906540   74.088028   87.109795
H   56.582386   61.514496   65.934891
H   52.749405    0.580790   88.297806
H   60.571316   28.479498   34.505409
H   43.060627   49.641052   21.124573
H   17.231991   67.826614   52.471901
H   42.084415   59.245667   29.888563
H   27.973442    2.419274   15.201541
H   29.466148   21.398052   54.971821
H    1.594352    5.778402   74.006760
H    3.379749    4.242257   66.773079
H   47.860016   70.408821   48.139999
H   96.767029   10.114886   18.466057
H   35.232895   21.404095   80.953636
H   64.805351   79.918350   13.686928
H   70.988594   68.167007    4.777559
H   10.049593   69.057289   93.094635
H   84.027206   76.746460   52.784626
H   87.223083   47.930149   93.621544
H    6.833649   23.016289   25.902601
H   72.319321   70.385529   77.116104
H   36.754402   84.817970   73.211334
H   76.974464   88.342377   57.457272
H   60.490784   71.151299   88.210236
H   18.104858   58.448349   85.112862
H   44.443600   38.391418   26.810215
H   88.264420    0.649460   97.085999
H   88.836449   42.970638   21.579916
H   71.800163   37.796947   88.228897
H   77.479134   19.162319   63.808922
H   50.037685   69.961082    4.636685
H   33.697567   30.801058   69.104073
H   69.469780   34.655285   89.331413
H   84.584396   59.183022   67.660149
H   36.541176   95.720200   63.816898
H   23.199053   86.118454   49.739498
H   24.080627   14.516685   41.542557
H   91.973076   61.703636   76.866203
H   39.631554   47.186066   25.211395
H    3.485680   44.945473   87.746277
H   96.065575   36.421074   29.769201
H   59.312431   91.178833   28.991669
H   88.957138   36.605034   75.667122
H   98.547134   45.058422   53.786545
H   86.837334   20.201775   69.082687
H   53.461864   78.475266   55.888252
H   97.116180   20.210720   15.627696
H   67.927803    2.788455   59.824585
H   45.560127   74.486496   63.656834
H   24.352493   42.133331   35.744431
H   52.854027   36.224945   67.854218
H   25.881380    4.220159   49.958855
H    2.783933   64.533958    7.126633
H   38.105923   13.836384   79.089165
