200
TIME:    0.771, STEP:   771
H   25.787600   60.712719   24.419348
H   32.696960   40.630154   11.454016
H    7.008396   92.379936   71.502800
H   35.741547   83.180214   30.614178
H    9.572380   97.187363   46.023998
H   72.344238   38.402821   49.832569
H   11.052466   54.927368   59.929279
H   14.788039   11.815204    6.224322
H    8.992542   79.545601   34.765678
H   92.169006   67.460724   75.127708
H   30.701727    5.937269    9.741768
H   32.973557   56.195995   38.043392
H   24.206913    4.631104   39.528587
H   79.306091   55.447254   67.853233
H   93.985306   76.032257   41.672077
H   13.822818    4.087814   42.868214
H    9.186437   32.587830   89.650764
H   23.953440    8.694216   34.066872
H   82.692741   10.478065   50.300640
H   91.745605   72.412498   16.886532
H   64.457626    3.265215    1.513255
H   78.207603   69.110924   50.112038
H   79.104218   58.680656   36.395157
H   19.855398   92.900375   89.921036
H   26.326424   34.059994   26.462849
H   18.221537   85.902016   89.418869
H    9.178921   69.451439   70.431732
H    6.696906   92.034317    2.128484
H   33.433289   40.389717   35.229061
H   69.054115   34.989365   80.257721
H   12.668229   73.633675   16.844019
H   22.269997   75.951645    6.676726
H   14.293121   20.411270   79.665138
H   78.852409   64.157242   47.571617
H   22.505959   67.859665   30.179577
H   15.715999   37.814915   85.565445
H    1.505054   62.968132   89.941322
H    6.649706   58.490936   91.293007
H   33.417839   27.386515   56.234829
H   84.990379   37.504887   42.954193
H   80.662308   80.418434   19.149387
H   39.769394   31.972137   24.085608
H   67.141006   75.583740   70.045517
H   36.098312   89.023888   37.739082
H   46.920162   92.495934   63.526131
H   33.587337    0.019289   48.462875
H   89.980637    0.197114    7.820982
H   77.188416   65.542503   28.558365
H    7.616037    8.601638   61.549171
H   43.115204   20.197794   83.248146
H   65.576569   63.775162    6.824937
H    0.839912   44.837505   74.958031
H   66.498863   79.236771   14.867366
H   14.503602   93.389343   89.566559
H   54.722794   64.575661   73.600281
H   98.498833   59.267971   96.036011
H    3.915086   18.754860   43.958591
H   73.210007   70.923424   95.718971
H   16.976532   84.735123   19.969166
H   30.822052   93.007484   57.178154
H   48.699780    5.016453   26.722055
H   99.480186   17.682783   53.136993
H   86.076225   36.206123   66.970474
H   36.992058   65.909912   15.523273
H   79.884270   83.995132   39.643421
H   17.909725   37.190636   42.407944
H   66.340431   11.961226   96.805794
H   94.367836   92.657188   97.784439
H   35.410049   13.028951   55.258850
H   42.180328   50.884972   50.954235
H   58.232220   85.776222   87.484879
H   17.216860    9.864630   41.047844
H   94.346817   34.843136   81.715004
H   25.164799   97.292999   76.031593
H   85.610764    9.467233   42.645119
H   66.735413    0.329956   59.407612
H   93.183212   49.718067   64.634636
H    6.887857   15.639160   29.810020
H   15.568787   53.349174   23.173443
H   60.274010   87.705513   69.079315
H   65.904968   21.127609   93.250229
H   49.985367   59.040497   71.441734
H    8.928026   19.490925   74.743332
H    7.358198   79.223076   11.157873
H   19.999203    4.938965   42.733982
H   39.626797   67.195480   16.729099
H   59.654041    3.890595    2.988700
H   70.915672   98.781204   31.470350
H   81.938828   73.349632   79.083069
H   20.784512    9.848632   49.023663
H   18.984049   39.476738   78.392632
H   80.356674   93.194351    9.954136
H   72.485222   10.873400   80.606667
H   36.216888   75.356506   83.684967
H   38.579483   49.743408   90.055328
H   47.282112   39.581364    4.095273
H   86.508644   95.912483   21.198013
H   92.297714   36.689434   53.621120
H   24.985817   64.458794   54.763035
H   76.437134    6.555486   27.380045
H   33.557583   95.107971   93.943855
H   10.317108   84.690117   62.935577
H   34.186531   17.763920   37.922836
H   47.390816   68.919876   11.249467
H   24.634842   20.494526   42.303146
H    8.445320    0.775262   19.029999
H   90.812256   36.690125   53.787994
H   61.622124   54.662083   98.208839
H   86.291138   33.386929   24.809147
H   21.424345   20.656805    8.136114
H   54.180851   91.452454    1.169448
H    7.314970   76.698181   96.559616
H   47.871464   86.436546   82.385376
H   61.425438    7.949646   61.261303
H   46.130272    4.079949    8.154104
H   92.368271   90.264244    2.889263
H   10.742855   15.919722   90.370346
H   38.077061   53.132851   23.364342
H   39.027889   77.649605   57.296448
H   84.795761   57.272823   69.151672
H   46.096626   25.288036   70.119888
H   95.377983   14.901028   63.807598
H   45.038216   99.427139   39.781761
H   96.254112   48.210949   94.611778
H   61.027534   95.805115   75.251144
H   67.176247   76.880295   15.278753
H   82.187798   51.669266   50.547546
H   63.813858   91.734612   39.487263
H   99.002319   33.262711   72.789307
H   93.482521   21.632532   75.547958
H   70.043900   66.226044   23.703846
H   61.318375   91.317947   21.849270
H   90.703835    8.428959    1.325519
H   74.883446   26.617226   56.242283
H   30.657848   91.768784   32.016457
H   48.215309    0.945361   75.858719
H   69.771828   87.917625   81.772797
H   95.747597   47.641380   74.808319
H   60.192673   51.759499   71.424500
H   43.735580   83.623482   80.702988
H   76.905952   47.453281   32.062729
H   32.793304   57.144764   58.625359
H   37.935734   66.534004   81.473854
H   33.381523    7.306359   86.923653
H   65.261436   52.156471   66.432022
H   65.396210   71.123810    4.414671
H   57.290001   94.452400   43.479836
H   28.153168   53.652847   65.778465
H   79.380707   42.622112   92.665733
H   26.388746   94.472076   70.125755
H   57.504345   70.327942   47.335526
H   56.139912   92.416550   31.511990
H    0.843572   11.983616   84.824638
H   23.946535   13.331170   62.830475
H   34.668694   67.902863   70.359314
H   79.265350   44.845547   70.398247
H   64.869522   76.808495   87.043259
H   53.595493   28.140205   22.164381
H   88.078781   99.733490   82.912186
H   57.726425   35.277954   98.618652
H   59.171879   62.836700   69.297424
H   18.672428   20.304518   30.943829
H   88.076271   11.418413   37.011261
H   30.765934   35.778839   48.480999
H   53.869919   40.106113   15.041995
H   21.062338   47.543732   59.399132
H   65.756256   88.978401   57.850853
H   24.096077   55.091946   69.970261
H    1.288427   26.443382   35.603085
H   50.705257    6.452562   84.423767
H   69.220764   11.948640   35.931511
H   27.818836   45.723949   59.088726
H   47.932629   54.637001   75.483170
H   64.687286   61.837460   86.558998
H   46.757904   91.042053   74.263824
H   17.300438   50.530636   23.800533
H   29.962791   69.509499    9.119930
H    6.436179    9.707260   71.670029
H   62.021622    9.035246   62.924690
H   61.041485   60.151100   93.875687
H   71.723274    4.218195   29.373457
H   29.938049   30.754238   89.001198
H   41.185539   89.606834   16.587105
H   63.044811   26.202904   96.725212
H   92.389763   65.303261   76.209183
H   10.376653   40.704407   86.611794
H   49.841705   95.429276   11.030849
H   64.910591   89.716866   44.107059
H   91.240425   63.541336   72.612122
H   59.269627   55.384800   72.411819
H   73.186180   13.456280   75.509529
H   43.299892   99.359604   17.860895
H   15.895142   30.156706   69.970963
H   25.826973   84.723000   44.014549
H   66.672272   30.537600   20.079329
H   76.624527   11.686416   22.291414
H   12.990895    0.038432   21.389326
H   13.477342   86.852783   31.991421
H    4.832304   13.097675   54.268883
H    2.469446   17.002504   90.371544
