100
TIME:    2.984, STEP:  2984
H   15.526705   48.373283   96.414078
H   18.264931   66.534073   66.229813
H   31.047033   88.585312   88.311287
H   81.977463    9.708956   76.600769
H   68.443634   11.938260   84.796646
H   81.748299   97.975304   74.261955
H   96.579521   62.832993   23.805626
H   85.349777   46.755322   34.213078
H   80.275520   99.393845   12.254383
H   93.296867   59.229179   24.539736
H   22.690613   86.310379   52.314983
H   41.950516   73.263229   80.524895
H   53.449257   81.171143   28.543903
H    7.330985   95.878334   84.323769
H   16.797119    3.484673    7.333377
H   81.543915   50.737579   85.343117
H   84.151558   79.338654   45.033642
H   64.911339   49.588783   96.093445
H   91.743523    3.534123   20.571535
H   12.126068   42.446087   19.497187
H   87.201935   59.151573   76.250671
H   48.459335   48.045288   65.163116
H   45.903328   70.353539   46.975143
H   41.795593   72.470093   85.455849
H   22.858879   49.513847   58.577927
H   32.976551   38.695858    9.481417
H    4.764771   18.435217   59.180683
H   80.760338   95.722755   65.409355
H   76.054825   19.823832   16.117029
H   15.413472   16.986374   20.607906
H   33.493816   89.636688   73.294365
H   54.168739   70.064720   23.020210
H   80.546844   50.158394   66.619240
H    4.181800    0.257054   46.039322
H    6.596600   33.352722    6.434196
H   32.001949   18.893255   10.382401
H   66.002541   95.254379   43.592770
H   40.656647    4.338536   33.013981
H   19.116272   16.400805   55.140335
H   82.133682   32.830933   72.809975
H   31.316000   58.569706   12.647716
H   63.436241   45.782639   42.991592
H   36.943775   81.394104   17.011364
H   88.810944   62.784691   72.493004
H   97.816017   14.158979   11.459712
H   39.589901   19.832020   95.285378
H   65.047165   87.117340   54.104774
H   56.398777   26.106371   53.210930
H   52.253174   85.314690   25.440561
H   88.464928   76.161690   74.959015
H   43.316959   81.557373   84.879654
H   50.149128   86.846375   78.168297
H   70.777382   39.310974   29.562889
H    7.592922   58.523354   63.492096
H    3.202182   20.094093   25.728342
H   97.299881    9.395910   91.044403
H   85.424385    3.444529   39.790749
H    3.861731   95.085327   36.695633
H   25.618652   64.850052   82.400322
H   62.104179   57.149158   78.738533
H   47.933968   39.801891   81.739456
H   93.006615    0.167466   60.339836
H   76.644829    3.659952   28.848648
H   47.945839   58.026718   46.126575
H   50.763409   22.516571   73.455956
H   18.033180   93.929451   22.621777
H   48.156868   51.525822   11.129497
H   74.240425   88.194885    8.855056
H    5.623147   35.375114   73.082161
H   90.841125   98.228584   95.449677
H   27.277515   92.368019   26.354057
H   27.923014   52.492004   75.097015
H   12.428999   70.704216   85.237297
H   64.524345   60.547325   25.860558
H    6.043005   32.891964   27.605770
H   96.199425   98.818596   95.144623
H   37.882732   67.914444   43.823215
H   72.174072   55.605152   79.235580
H    4.607614   44.753780   50.974457
H   53.184395   46.439404   63.846939
H   69.274765   60.152508   58.335316
H   65.218185   63.715347   37.257668
H    6.596581   57.064941   14.111034
H   55.443806   67.506317   90.874817
H    7.032891   62.234982   58.487083
H   82.614807   18.660892   49.001278
H   66.449333   86.391808   65.831940
H    3.990725   66.388153   64.710213
H   17.609280   28.027456    3.786803
H    2.512301   86.505203   30.889088
H   46.140198   34.559422   96.478348
H   99.076859   19.919901   90.382744
H   76.734833   17.051191   49.761742
H   35.642849   94.234123   28.014828
H    4.997843   82.441162   84.656487
H   40.387772   77.896614   13.321648
H   25.746288   38.926083   65.577019
H   17.820410   41.644653    8.289791
H   66.562584   49.713146   95.095055
H   24.558962    2.060866   10.281016
