100
TIME:    5.753, STEP:  5753
H   28.270147   94.442833   93.878983
H   41.590675   16.609655   40.850689
H   78.649948   87.798203   55.814495
H   82.442230   95.625824   24.820980
H   43.641953   33.885742    9.718269
H   38.808292   94.975441   48.485554
H   51.454578   49.808567   40.345173
H   67.711838   86.309586   79.972786
H   12.208214   33.165985   37.956017
H   17.626722   98.987923   32.970951
H   65.124985   97.727203   85.591255
H   36.265396   12.058641   83.424507
H   76.956070   13.695034   53.374687
H   70.226738   87.343513   95.045204
H   50.476402   56.146225   74.231995
H   70.208084    8.550633   55.491913
H   61.485085   62.485577   97.106628
H   24.091963   14.897175    0.097687
H   34.872684   19.698030   66.450821
H   37.520706   83.641396    8.023554
H   22.885536   83.488037    1.098446
H   13.926056   51.721176   29.357162
H    8.932179   47.833443   67.750214
H   84.521553    5.650851   79.805878
H   23.823658   29.918137   79.027077
H   20.320902   56.587547   49.431007
H   65.992294    3.330630   14.114048
H   47.120007   24.970284   56.938507
H   36.264656   71.049194   85.225220
H   21.588688   48.453087   40.735214
H   42.472443   37.938229   54.219887
H   29.005039   93.563950   66.680031
H   75.591423   47.565178   16.072630
H   21.179619   46.494560   29.385683
H   37.768066   24.037149   75.045059
H   72.736130   36.028740    1.339090
H   31.586891   93.847290   61.779217
H   26.210857   53.672962   28.414883
H    2.234860   56.068413   86.804100
H   21.325483   73.607277   90.668480
H   42.074463   53.580589   77.883888
H   15.382642   64.163528   73.659142
H   60.794796   97.998978   17.019604
H   11.995962    9.206869   43.233635
H   57.624760    4.909360   48.410381
H    3.863843   72.646500    6.533381
H   86.679977   37.706253   80.688881
H   56.546658   54.624008   24.540930
H   33.195732   55.985481   14.983964
H   46.535526   18.295691   81.291550
H   43.106564   14.228392   14.072959
H   84.717918   29.903702   96.387276
H   28.206463   55.366577   68.745049
H   43.464279   13.335593   85.680931
H   82.732292   62.771374   49.280788
H    0.761091    6.482125   96.781097
H   60.965645   23.546608    3.145552
H   97.675690   33.588158   65.371323
H   44.003143   81.847206   69.823158
H   79.379730   69.983704   99.981590
H   22.604370   11.031370   65.845604
H   94.732704   74.393967   35.049362
H   64.632973   14.708466   38.969971
H   38.087746   73.102158   70.948044
H   60.671097    1.361125   31.321295
H   47.930016   56.274376   86.345589
H   25.994831   47.257603   44.817581
H   82.966606   46.557896   41.229267
H   43.631596   36.412437   99.413483
H   46.939491   37.501282   89.618958
H   39.349648    3.966505   93.136452
H   99.606522   60.594101   77.830185
H   31.885536   33.739113   14.239822
H    3.565622   85.311424   61.329704
H   39.546345   36.842487   37.514908
H   61.665985   76.286919    8.826088
H   89.290062   27.913942   92.792809
H    2.266734   74.546700   32.156448
H   37.389858   36.620350   81.869270
H   17.392467   95.626045   25.294964
H   23.449251   88.799088   23.832174
H   72.989746   81.779861    5.702180
H   81.765144    3.329603   77.830597
H   45.946617    4.455472   37.969158
H   72.205696   89.031242   90.063644
H   18.884457   20.370609   41.289078
H   51.384590   85.062813   97.868668
H   48.553062   44.713001   35.928093
H   75.074081   73.854500   81.138680
H   57.696964   72.583054   29.873774
H   59.459129   84.076736   54.954632
H    3.962640   28.159590   43.143402
H   54.231827    0.136481   63.892902
H    3.273376   62.201000   14.714898
H   57.125938   34.411076   48.283390
H   69.095795   68.551971   70.298950
H    5.956570   97.833763    6.328872
H   27.172709   71.115570   63.387650
H   34.653290   61.649220   63.164162
H   96.552841   31.003906   43.536282
