100
TIME:    5.712, STEP:  5712
H   31.042696   98.202751   93.916519
H   42.723030   14.387856   38.265354
H   77.944885   84.848450   56.295902
H   82.435349   97.314972   27.068329
H   44.009186   30.599413   10.829901
H   39.444225   95.019859   44.425030
H   53.603237   47.039928   37.138920
H   70.934357   82.762375   83.737083
H   13.216072   37.107956   40.536972
H   18.746721   98.399223   31.365572
H   68.938705   96.077469   89.540733
H   37.830360   10.003590   86.342979
H   79.572372   16.174484   57.448662
H   72.256844   87.469887   91.925285
H   49.977791   59.808548   76.202667
H   71.856567   12.136710   58.895233
H   64.782051   59.773869   93.374237
H   23.215170   16.892090    1.518927
H   34.234249   17.977915   64.290588
H   38.625221   84.512245    5.232120
H   25.318535   87.569519    2.211243
H    9.995346   51.666748   32.848694
H    9.479667   48.166893   68.923233
H   88.330894    5.160372   82.850723
H   25.289932   33.169746   78.724281
H   20.507803   57.799667   53.286331
H   69.527618    5.034996   13.300520
H   50.579319   23.056541   55.583122
H   35.373161   67.329315   87.163361
H   20.016685   49.467827   37.475784
H   40.858681   34.261829   57.463676
H   26.416264   94.696930   70.475609
H   72.703606   50.564980   12.379025
H   19.447147   50.251976   31.112837
H   38.787186   27.136580   72.548248
H   69.172028   32.817482    1.468035
H   27.654461   95.348755   58.548565
H   27.905323   54.423382   25.521748
H    3.965553   56.961784   90.777351
H   25.187220   77.445396   87.442833
H   44.876572   52.173904   76.917946
H   18.837902   64.002747   71.565849
H   60.441639   97.753113   14.058171
H   14.613907    8.518698   39.225037
H   61.181042    6.526954   44.901958
H    4.392920   71.864487    6.366812
H   86.359665   35.476578   80.295372
H   56.544468   54.201721   22.004080
H   31.997375   59.380981   16.619514
H   45.675625   17.671644   84.159348
H   43.109379   18.186785   13.640740
H   82.725349   33.708263   99.078651
H   27.355946   55.128845   71.126122
H   44.413643   14.004605   83.871666
H   85.996727   59.178181   48.932011
H    0.710021    6.525253   98.176834
H   58.366547   24.729637   99.246071
H    0.728646   37.460060   66.427353
H   40.769676   80.114891   72.970604
H   82.085495   66.832504    1.147720
H   20.017941   12.937996   69.042473
H   96.187874   74.775589   36.904610
H   61.849392   17.506315   41.781464
H   35.272186   72.878815   72.061005
H   59.043571    4.635763   27.503038
H   50.448723   58.312614   83.921349
H   29.284447   45.840282   42.838150
H   85.798744   44.213108   39.269230
H   41.588039   39.358437    1.984931
H   46.108994   35.438957   89.705292
H   40.651543    6.756180   93.628181
H    2.987127   61.954803   74.828506
H   34.558777   35.767029   15.291161
H    4.468075   87.906456   63.765831
H   37.569729   36.783993   34.406876
H   60.696602   73.659355   11.584795
H   85.567680   31.467566   92.067726
H    0.340471   77.227440   29.892054
H   35.423878   36.740780   81.411949
H   19.403023   97.859474   28.827160
H   22.646906   88.374924   21.381815
H   69.912369   81.513977    9.131881
H   79.171989    2.643993   73.926163
H   43.126053    0.946968   41.713749
H   74.202019   91.595619   94.038147
H   19.828190   18.864609   38.441925
H   48.646294   88.043846   95.913635
H   47.893669   47.994015   36.353195
H   74.223251   76.137352   81.474007
H   61.322063   74.269699   28.408125
H   57.781242   81.862701   54.088787
H    0.929056   25.076113   42.362328
H   51.603638   98.906502   60.722309
H   99.310921   59.713573   11.950404
H   57.834755   38.083721   47.341221
H   65.709366   70.171051   72.416641
H    9.210917   95.480843    8.686875
H   27.251848   69.086716   64.210716
H   36.606445   61.472485   66.598213
H   94.005981   32.056019   47.486073
