100
TIME:    1.708, STEP:  1708
H    1.817712   65.389023   97.582291
H   53.759132   97.349510   85.740410
H    9.113836   96.784920    3.285449
H   81.763290   62.280602   46.542484
H   79.872650    9.661244   19.393612
H    1.530486   99.357689   47.895023
H   63.452358   76.670540   24.020683
H   85.640862   36.365475   51.371773
H   11.642097   22.076279   92.574211
H   28.164087   40.907707   74.574547
H   41.381027   34.967426   75.225708
H   90.649933    9.303831   71.351814
H   34.616714   58.371025   55.367020
H   70.511497   99.811317   87.219414
H    1.274911   17.461823   68.671921
H   32.849976   62.343048   91.262466
H   86.746826   94.949753   28.864416
H   37.643631   11.640697   40.333298
H   71.864433   50.007385   53.345295
H   46.500732   69.540878   32.621193
H   62.921494   86.180481   10.886635
H   26.122135   46.354301   73.822548
H   62.939766   80.731163   83.481796
H   60.349815   57.166508   80.223633
H   68.496086   50.713753   49.164078
H   38.827351   76.714706   29.081842
H   14.795662   71.479202   33.859669
H   88.425919   36.163372   23.229322
H   48.309769    4.055377   76.434471
H   66.485634   48.567062   19.169617
H   83.289619   75.209900   74.255981
H   73.601379    5.323994   41.145943
H   90.666702   43.516502   51.667084
H   50.268578   17.194588   99.796585
H   38.316811   29.808571   28.733780
H   21.058796   18.655840   14.768067
H   43.618294   41.986183   43.048954
H   93.397148   27.692867   42.969753
H   73.936264   44.047234   78.423615
H    2.319301   52.286526   72.416885
H   18.518707   14.789016   82.584274
H   78.115875   88.513466   83.044876
H   25.952841   73.742310   24.844296
H   70.292000   41.396660   47.732883
H    8.499569   64.499405    2.267881
H   56.051968   95.494270   90.106300
H   54.114979   17.877085   42.217964
H   56.330631   12.968843   74.259300
H   14.957974   90.993187   76.342453
H   61.712017   56.746250   64.203575
H   43.414310    4.746840   71.425735
H   88.139000    5.249046   61.936268
H   44.310120   31.912292    3.671155
H   37.138973   79.339577    7.186380
H    4.785440    8.236994   14.899729
H   95.703323   10.736921   34.482452
H    4.532455   40.263527   18.432592
H   98.876068   15.587937   69.561356
H   24.983337   10.935349   80.359741
H   46.307652   59.071529   15.030057
H   67.442642   99.143135   81.226372
H   38.290894   12.046721   18.072182
H   90.085251   90.680153   16.382912
H   60.325821   51.085587   80.769112
H    0.114564   24.428642   54.624538
H   96.420265   57.363289   47.175640
H   50.532761    7.413794   49.524975
H   62.382530   15.219403   47.854877
H   42.029343   27.060333   53.110741
H   64.984680   34.050217   98.136566
H   67.795601   79.188271   41.662663
H   33.134953   94.839722   81.673851
H   95.626373   33.821438   17.952534
H   92.600395   41.294136    1.697056
H   44.520805   31.073980   30.876389
H   66.040062   17.038992   81.002464
H   22.029943   78.509506   21.254919
H   12.225276   39.038780    8.765489
H   43.422424   48.498875   36.734886
H   15.762121   15.932203   73.775490
H   44.306271   46.951702   82.072044
H   69.477036   55.382095   43.955887
H   25.867855   35.764526   92.578522
H   67.666267   58.317364    7.423012
H   69.163971   42.048286   82.181061
H   11.979534   71.794106   60.391975
H   81.228172   79.167404    4.987136
H   83.450592   68.548004   77.988899
H   91.127632   99.073997   14.225763
H   15.328014   39.004135   85.274361
H   93.920906   65.657059   69.531570
H    4.661740   23.963568   66.064445
H   94.873100   78.808456   51.050797
H   12.311951   16.835043   41.980133
H   27.062298   96.736694   55.334343
H   34.995407   28.283556   79.228424
H   27.029125   65.699104   38.960693
H   13.136336   30.780273   28.708260
H   27.347046   44.212811    1.980625
H   45.313950   34.831295   33.181343
