100
TIME:    5.407, STEP:  5407
H   51.668861   26.172035   94.195755
H   51.146645   97.860092   19.033772
H   72.699905   62.905167   59.877102
H   82.384155    9.881489   43.787231
H   46.741043    6.152337   19.099136
H   44.174946   95.350288   14.219343
H   69.587975   26.443958   13.287522
H   94.906754   56.375263   11.740518
H   20.713554   66.432373   59.736763
H   27.080622   94.019875   19.421316
H   97.309067   83.805054   18.920231
H   49.472168   94.715797    8.053217
H   99.035110   34.619011   87.755058
H   87.358849   88.409981   68.716133
H   46.268608   87.052658   90.862549
H   84.119675   38.813126   84.212616
H   89.308266   39.601406   65.608887
H   16.692686   31.732311   12.091497
H   29.484295    5.181997   48.222851
H   46.841736   90.990517   84.466347
H   43.417671   17.933083   10.489422
H   80.754700   51.261856   58.822281
H   13.552438   50.647438   77.649353
H   16.669380    1.511690    5.501765
H   36.198029   57.358551   76.471779
H   21.898165   66.815933   81.967636
H   95.826981   17.713902    7.248629
H   76.314339    8.820168   45.500381
H   28.741310   39.657047    1.581133
H    8.322140   57.016502   13.229706
H   28.854172    6.912131   81.594307
H    7.158553    3.124439   98.711006
H   51.219677   72.880577   84.902214
H    6.559676   78.203484   43.962257
H   46.368439   50.192398   53.975670
H   42.658588    8.927902    2.427221
H   98.401031    6.518814   34.515667
H   40.510494   60.005772    3.999375
H   16.840199   63.607597   20.333727
H   53.913883    5.997629   63.447109
H   65.721527   41.709541   69.732277
H   45.670128   54.528008   56.821209
H   57.814495   95.924118   92.027473
H   34.088322    3.399113    9.404222
H   87.638390   18.560150   18.802126
H    8.328714   66.047073    5.127703
H   83.976852   18.889050   77.368050
H   56.528179   51.060318    3.132461
H   23.082771   84.642090   28.786053
H   39.278797   13.029348    5.492413
H   43.132099   47.632751   10.425456
H   67.902580   62.011143   19.101990
H   21.028927   53.360352   88.838982
H   51.475983   18.981750   70.412498
H   10.281338   32.448330   46.337444
H    0.330115    6.846084    8.559769
H   39.031792   33.530220   70.238121
H   23.439053   66.263237   74.283188
H   16.715834   67.228157   96.384529
H    2.213549   43.388607    9.822639
H    0.777887   27.121887   92.824059
H    7.012297   77.614487   50.705841
H   41.141727   38.319504   62.696228
H   14.328151   71.217361   80.340347
H   46.936371   28.995640   99.098976
H   69.185448   73.475121   65.887367
H   53.754944   35.296803   28.112804
H    6.867278   26.769827   24.688467
H   26.385977   61.273796   21.114502
H   39.930901   20.098179   90.347534
H   50.336372   27.508316   97.286171
H   28.135555   72.077103   52.497749
H   54.445023   50.852745   23.112091
H   11.181370    7.210427   81.888237
H   22.864912   36.348850   11.285107
H   53.485336   54.111671   32.107334
H   57.876278   57.904194   86.673820
H   86.011017   97.169533   13.047254
H   20.798901   37.636662   78.009926
H   34.357590   14.473504   55.103333
H   16.678240   85.219559    3.153130
H   47.021408   79.536057   34.645615
H   59.880951   97.543518   44.879452
H   22.143259   74.847702   69.570312
H   89.052711   10.673091   23.604271
H   26.848644    7.661433   17.261887
H   28.276037   10.219986   81.370102
H   42.988426   72.400757   39.515541
H   67.893906   93.119545   83.968513
H   88.287170   86.816696   17.505129
H   45.299400   65.392441   47.647747
H   78.362144    2.137774   36.551895
H   32.052475   89.756874   37.136189
H   69.832924   41.209545   91.384911
H   63.107658   65.404503   40.332401
H   40.517639   82.215424   88.170197
H   33.419731   77.977409   26.227783
H   26.712187   62.275055   69.509056
H   51.136017   60.157749   92.143639
H   75.059830   39.881603   76.867645
