100
TIME:    8.316, STEP:  8316
H   54.944817   59.404259   91.532486
H   70.808914   55.497204    2.454952
H   22.715334   72.190384   25.722717
H   82.872421   90.030510   84.334663
H   20.680574   39.321323   40.223602
H   99.057129   92.198753    2.306990
H   17.128986   22.873735   40.775196
H   66.265091    8.042216   44.646698
H   49.204720   86.743103   76.625320
H   47.620461   35.790440   33.325752
H   26.720963    0.855092   38.710350
H   38.443268   40.528576    0.987603
H   13.466087   58.628777   98.686234
H   43.322258   79.443642   90.090965
H   81.612129   27.206711   50.983543
H   67.154877   84.381126   42.740509
H   55.383797   32.009510   30.426641
H   78.896896   90.182549   11.253279
H   74.787964   27.219509    1.482344
H   68.466110   29.214674   82.524574
H   70.793495   28.333202   31.534048
H   59.643360   55.123596   11.094025
H   74.711617   26.991083   94.418991
H   46.381882   36.311737   89.455399
H   32.155586   26.659782   97.955482
H    8.396786   80.947800    8.309254
H   44.981209   96.789871   64.973801
H   30.862070   44.602467   41.655510
H   91.993950    3.584857   64.070213
H   19.865517   85.018234   44.486420
H   43.342899   67.766640   51.443626
H   90.834709   22.750256   29.410271
H   56.125629   60.044136   46.967911
H   29.473358   11.610878   21.411207
H   73.993385   30.032097   31.004408
H   95.533707   36.774811   93.282112
H   77.411156   99.984138   63.733608
H   20.277138    6.763548    9.279113
H   94.050041    0.227342   38.429832
H   79.918808   33.667053   92.320068
H   66.911850   41.523735   38.265835
H   99.386597   74.214355    4.507749
H   82.854706   13.373024    2.147516
H   48.338612   52.228088   93.829865
H   35.304550    3.787670   67.733818
H   70.779564   21.527863   16.945959
H    6.707502   77.090279    5.291331
H   56.695187   81.022095   83.124519
H    8.117279   43.718552   12.744705
H    0.336577   57.308277    2.077162
H   42.930576   66.787361   41.090637
H    9.286028   92.075684   28.143238
H   81.367775   70.227722   19.891821
H   84.112244   71.524155   98.779312
H   78.662422   87.379364   71.077301
H    3.953327    3.786098    9.530533
H   23.450577   49.591866   46.908302
H    6.829593   91.543373   99.352928
H   46.140438   90.148857   73.067505
H   10.249421   66.984634   27.083763
H   84.280014   91.839233   66.014076
H    3.766850   50.537918   19.081467
H   38.633808   39.814484   63.217377
H   14.084198   87.063812    1.357616
H   62.401474   96.658478   70.001755
H   90.484016   28.860222   37.891178
H   20.360346   35.868206   68.558578
H    5.922718   93.137749   63.755493
H   71.371643   52.251610   38.668060
H   98.918373   66.333755   84.205505
H   57.960789   29.580154   62.397346
H   88.464996   75.475975   65.604294
H   64.772415    6.968810   48.529018
H   47.139385   23.100586    9.045481
H   63.061157   40.560078   31.826254
H   22.251596   40.550545   36.368195
H   22.053123    6.028792   38.227402
H   22.678797    6.961239   73.704773
H   60.293869   29.092007   10.462824
H   91.701317   56.007683    4.490428
H   73.614693   15.315194   77.018890
H   65.321091   98.401016   91.287605
H   43.880196   46.191074   21.916668
H   22.277271   23.777441    3.879837
H   47.410477   28.705074   41.610008
H   59.901882   14.513595   19.271667
H   22.561693   98.711205   20.082283
H   89.773186   39.619560    9.354019
H   28.266163   31.150137   60.176643
H   31.092413   67.135269   21.494463
H   64.347679   22.471401    9.080832
H   93.598686   20.922039   91.981285
H   18.524967   77.039543   62.093628
H   50.974464   17.694935   87.533928
H   12.812027    4.832256    7.179850
H   80.789078   67.342224   37.916847
H    2.517717   44.916801   58.927971
H   22.225512   97.936180   11.936899
H   12.557870   72.712700   48.485867
H   55.748859   65.228683   96.632950
