100
TIME:    5.096, STEP:  5096
H   72.700844   54.692146   94.480484
H   59.735970   81.008881   99.424194
H   67.351746   40.530212   63.528751
H   82.331955   22.695480   60.835381
H   49.526642   81.224380   27.530674
H   48.998730   95.687218   83.420341
H   85.888710    5.443083   88.966843
H   19.350746   29.470745   40.296375
H   28.358528   96.333664   79.312401
H   35.579094   89.554375    7.242051
H   26.237518   71.291214   48.876614
H   61.342995   79.126884   30.189711
H   18.880692   53.425362   18.657715
H    2.757822   89.368568   45.048508
H   42.486458   14.832313    5.811430
H   96.624023   66.014236   10.028362
H   14.317228   19.032108   37.297333
H   10.042422   46.863308   22.872049
H   24.640343   92.135834   31.839067
H   55.219887   97.596230   63.292000
H   61.872856   48.894989   18.930450
H   50.938828   50.848999   85.306824
H   17.705086   53.176781   86.547134
H   45.566372   97.791229   28.599457
H   47.321442   82.021469   74.174965
H   23.315878   76.007935   11.213530
H   22.644724   30.641785    1.077425
H    2.556685   94.303772   35.219292
H   21.978996   11.441172   16.281582
H   96.397202   64.713676   88.506294
H   16.614384   79.023361    6.199638
H   87.521858   11.716561   27.501778
H   29.312298   95.635170   56.884880
H   93.419128    6.704770   57.064537
H   54.098831   73.701523   35.038818
H   15.624288   84.569023    3.405354
H   68.570923   17.909161   10.010137
H   53.363636   65.697273   82.051888
H   29.968578   70.384148   50.471832
H   83.206932   35.112686   38.977024
H   86.976547   31.039320   62.405254
H   73.621025   40.569168   42.212238
H   55.135670   94.059143   69.562355
H   53.945797   98.178955   78.995651
H   14.615816   30.829597   92.188622
H   12.341801   60.115223    3.863620
H   81.547165    1.975049   74.383141
H   56.511570   47.857117   83.889549
H   13.992798   10.399685   41.192810
H   32.756130    8.295729   27.243370
H   43.155827   77.657425    7.146920
H   52.788216   90.868591   39.519432
H   14.577573   51.557068    6.900770
H   58.677254   24.057045   56.688560
H   35.044312    5.193576   43.691837
H   99.942459    7.173225   19.146942
H   19.316681   42.503929   40.659523
H   46.596573   95.633034   82.293564
H   92.187859   54.087738   20.259945
H   22.735790   19.483234   18.668221
H   81.160034   41.584148   17.072197
H   18.049131   80.509232   64.778442
H   20.027372   59.541306   84.022430
H   92.972572   69.523224   88.782562
H   34.590996   53.835728   70.137291
H   88.290764   88.935905   47.498619
H   78.706696   24.545086   13.096909
H   28.350334    8.982570    9.820868
H   10.885052   83.620277   40.620811
H   33.631271    4.455507   91.002411
H   60.211723   48.668427    1.016379
H   53.777954   82.398529   29.726665
H   74.722473   66.235573   31.086876
H   18.026730   26.893494    0.367127
H    7.870690   35.905148   87.709076
H   46.132210   34.178268   53.032543
H   29.638380   84.859077   81.173805
H   71.399673   17.505039   95.871895
H    5.885859   38.550167   74.540977
H   49.607758   31.413986   81.896332
H   10.592684   82.002121   84.565193
H   23.684341   77.508316   60.653221
H   40.208549   92.342468   15.260533
H    0.747061   48.235031   97.976776
H    4.195763   30.127037   53.752327
H   34.007206   96.238258   95.664780
H    7.505056   32.832214   66.540466
H   37.983109   97.296967   42.747292
H   61.440048   10.435423   86.512093
H   15.783505   99.610519    6.388117
H   32.572014   48.600353   41.079998
H   55.351292   78.747360   30.627157
H   12.116817   80.427254   13.086079
H   39.775818   22.342337   70.414619
H   68.484291   93.260490   33.185703
H   14.830337   94.496735    4.233810
H   58.105736   60.129650   44.113510
H   25.570898   59.627075   74.487068
H   65.951416   58.817150   18.193237
H   55.741978   47.861134    6.826289
