100
TIME:    5.765, STEP:  5765
H   27.458670   93.342369   93.867996
H   41.259254   17.259954   41.607372
H   78.856308   88.661545   55.673595
H   82.444244   95.131439   24.163219
H   43.534470   34.847595    9.392914
H   38.622166   94.962440   49.674000
H   50.825703   50.618900   41.283588
H   66.768661   87.347794   78.871040
H   11.913231   32.012238   37.200615
H   17.298918   99.160225   33.440800
H   64.008774   98.210052   84.435310
H   35.807358   12.660120   82.570320
H   76.190323   12.969341   52.182304
H   69.632561   87.306526   95.958351
H   50.622337   55.074326   73.655212
H   69.725601    7.501050   54.495819
H   60.520119   63.279247   98.199036
H   24.348585   14.313297   99.681679
H   35.059544   20.201479   67.083084
H   37.197433   83.386513    8.840570
H   22.173439   82.293457    0.772749
H   15.076508   51.737106   28.335251
H    8.771939   47.735847   67.406891
H   83.406624    5.794405   78.914703
H   23.394505   28.966446   79.115700
H   20.266199   56.232780   48.302620
H   64.957565    2.831787   14.352154
H   46.107525   25.530403   57.335205
H   36.525581   72.137939   84.657959
H   22.048786   48.156090   41.689194
H   42.944763   39.014248   53.270485
H   29.762730   93.232346   65.569130
H   76.436638   46.687187   17.153685
H   21.686684   45.394829   28.880175
H   37.469788   23.129999   75.775833
H   73.779282   36.968620    1.301351
H   32.737816   93.407837   62.724773
H   25.714916   53.453327   29.261654
H    1.728316   55.806938   85.641197
H   20.195219   72.483925   91.612572
H   41.254333   53.992302   78.166603
H   14.371327   64.210587   74.271812
H   60.898159   98.070938   17.886379
H   11.229734    9.408285   44.406883
H   56.583897    4.435918   49.437237
H    3.708988   72.875381    6.582133
H   86.773727   38.358841   80.804054
H   56.547298   54.747604   25.283422
H   33.546471   54.991676   14.505258
H   46.787205   18.478338   80.452194
H   43.105740   13.069838   14.199462
H   85.301109   28.790192   95.599556
H   28.455395   55.436157   68.048149
H   43.186417   13.139785   86.210472
H   81.776848   63.823040   49.382870
H    0.776038    6.469502   96.372589
H   61.726357   23.200356    4.286867
H   96.782135   32.454918   65.062241
H   44.949524   82.354225   68.901955
H   78.587799   70.906006   99.640282
H   23.361374   10.473333   64.909935
H   94.306801   74.282272   34.506363
H   65.447609   13.889595   38.147095
H   38.911812   73.167526   70.622299
H   61.147446    0.402695   32.438816
H   47.192833   55.677818   87.055122
H   25.032017   47.672428   45.396927
H   82.137688   47.244175   41.802937
H   44.229710   35.550194   98.660919
H   47.182564   38.104889   89.593689
H   38.968605    3.150015   92.992531
H   98.617020   60.195847   78.708725
H   31.103081   33.145576   13.932114
H    3.301487   84.551903   60.616692
H   40.124866   36.859608   38.424576
H   61.949707   77.055962    8.018661
H   90.379539   26.873857   93.005028
H    2.830515   73.762093   32.819199
H   37.965267   36.585102   82.003120
H   16.804012   94.972359   24.261150
H   23.684084   88.923233   24.549353
H   73.890442   81.857681    4.698362
H   82.524117    3.530270   78.973358
H   46.772148    5.482351   36.873180
H   71.621407   88.280693   88.900375
H   18.608242   20.811390   42.122391
H   52.186043   84.190315   98.440872
H   48.746056   43.752705   35.803673
H   75.323105   73.186348   81.040535
H   56.635960   72.089401   30.302744
H   59.950218   84.724747   55.208050
H    4.850519   29.062071   43.372009
H   55.001053    0.496555   64.820877
H    4.433108   62.929028   15.524018
H   56.918480   33.336155   48.559147
H   70.086945   68.078094   69.679138
H    5.004078   98.522423    5.638724
H   27.149546   71.709381   63.146774
H   34.081635   61.700947   62.159004
H   97.298264   30.695969   42.380245
