100
TIME:    7.479, STEP:  7479
H   11.548223   36.160530   92.298782
H   93.925522   10.139050   49.680775
H    8.328119   11.973319   35.548428
H   82.731934   24.516121   30.212830
H   28.180700   72.232170   62.918747
H   12.037555   93.105537   19.416218
H   60.994152   66.356827   75.320694
H   32.051643   35.630299   21.496521
H   69.779778   67.218018   29.310066
H   70.481636   23.772356    0.550894
H    4.576660   67.176392   19.334711
H   70.390167   98.574448   60.565575
H   66.838707    9.292173   81.863960
H   84.766121   82.023506   26.395191
H   71.445930    1.971683   91.237579
H    0.808131   57.588318   12.218416
H   22.690529   76.647934   54.231228
H   61.002804   30.910721   40.266006
H   61.749256   92.105591   57.383144
H   91.020767   46.986866   25.537668
H   20.462250   11.658737   54.248417
H   79.399353   54.012466   82.372360
H   85.886772   33.795998   18.367140
H   24.150652   26.298800   51.618782
H   62.092232   93.037415   91.774025
H   12.343212    5.621799   87.075462
H   17.156019   31.583216   48.364704
H    1.486001    5.534126   13.987786
H   73.794411   27.645163    3.636419
H   87.771698    5.734217   77.947807
H   10.400361   92.712265   17.664330
H   37.985806   45.873249    6.895542
H   97.167122   21.282976   71.564339
H   94.106834   88.317055   56.672653
H   94.823875   93.404808   80.080536
H   22.774273   71.216110   95.913063
H   97.132736   30.639139   97.781403
H   54.870117   22.082127   50.212814
H   29.381039   18.462019   19.541599
H   58.754448   12.024068   26.466295
H   24.114637   12.806775   18.546476
H   69.924538   70.932053   61.774677
H   75.651520    8.352186   41.689251
H    1.785254   38.177208   11.992761
H    7.908333   36.808743   96.107857
H   81.584343    5.566425   13.545519
H    0.164452   31.572243   97.254646
H   56.644100   72.401260   31.335659
H   83.648750   13.039829   46.134384
H   82.762939   44.568600   60.601715
H   42.988049   47.594574   32.265457
H   68.607941   69.743835   83.086914
H   64.011162   65.374512   68.501350
H    3.498383   85.177002   61.843826
H   45.306107   14.028419   63.963482
H    2.910845    4.666541   38.023987
H   70.386917   73.742973   67.302574
H   69.153976   70.588066   20.913382
H   80.126518   54.782612   37.323051
H   65.480568    2.648020   50.890038
H   31.482157   30.763912   31.274307
H   33.473610   58.328598   56.954575
H   81.810295   96.929108   20.612976
H   56.610256   82.504349   24.083889
H   29.176411   63.510174   92.055336
H   41.900543   70.470116   88.400696
H   87.514008    6.931836   28.148909
H   63.740059   45.269768   23.742050
H   29.654320   12.393082   91.162445
H   81.919365   24.295656   85.980759
H   84.539955   86.530746   72.435829
H   57.389172    3.267165    4.254532
H   19.346426   48.369884   69.990051
H   65.562965   76.072815   58.776642
H   22.741930   39.327618   68.364517
H    2.462892   86.906761   92.687843
H   46.035847   78.474434   23.382261
H   83.357346   61.688107   27.476603
H   20.159094   31.550541    1.121971
H   32.747269    1.602399   76.598701
H   57.228722    6.656045   26.992508
H    2.515352   92.973083   61.310116
H   90.938240   32.193394   42.205650
H   64.691338   52.153561   80.325859
H   88.164673   81.064354   22.747442
H   79.162827   83.770828   61.147675
H   66.660286   59.568245   80.170891
H   76.311913    6.596506   18.032326
H   10.893586   77.753670   67.022224
H    5.094214    1.567814   91.573532
H   30.094227   77.275322   91.404587
H   31.669161   57.971527   76.029549
H   64.871811   51.927494   97.367134
H   70.081947   66.915123   31.096254
H   27.285450   79.806595   87.946411
H   11.656371    0.395111   81.148735
H   68.954521   96.884384    7.064391
H   23.841120   56.519016   28.741140
H   52.430687   69.098335   18.592304
H    3.761660   86.710526   77.264877
