100
TIME:    3.992, STEP:  3992
H   47.359283   55.934570   95.491226
H   90.226692   21.183764   29.813745
H   48.373573   61.104393   76.483406
H   82.146652   68.179741   21.347525
H   59.415070   92.733910   57.464859
H   66.121346   96.883263   74.087730
H   43.749218   30.896572    2.632550
H    6.122971   33.960567   41.662075
H   55.496956    2.478788   48.805386
H   65.749748   73.702568   64.014709
H   28.928909   26.869099   55.219212
H    3.475303   23.788752    8.774431
H   89.329422   20.186150   28.357010
H   57.420372   92.771400   61.034206
H   29.059509   13.445974   58.882099
H   41.015350   62.574150    1.669920
H    3.094176   46.009815   36.795860
H   86.444542    0.569524   61.147503
H    7.445126   45.823692   73.675354
H   84.966911   21.041651   88.126579
H   27.385773   58.801968   48.892372
H   45.097275   49.383423   79.322617
H   32.445076   62.155540   18.134182
H   48.141457   84.559448   10.591856
H   86.807770   69.574753   66.021645
H   28.351568    8.662211   15.000641
H   17.843847   76.535477   79.177650
H   95.708893   42.772766   98.724297
H   97.972549   11.277652   68.468300
H   54.063950   92.037407    0.741609
H   73.166969   80.025581   93.544609
H   17.814344   42.216003   29.704597
H   51.549168   76.408745   57.427841
H   46.773376    7.879784    3.575248
H   81.540482   57.155540   67.811996
H   19.652163   98.077667    6.907282
H   62.682831   58.340317   23.019156
H   98.996681   85.895271    4.146716
H   76.569946   94.439812   57.457695
H   87.191551   38.465584   52.117191
H   62.426773   93.160049   36.395489
H   72.842911   91.020844   90.349258
H   45.626270   87.438782   89.820183
H   24.442499   79.673431   71.050659
H   10.379599   74.386169   97.716492
H   26.585384   39.058094   99.376686
H   72.922165   41.936852   63.787025
H   56.452610   36.486267   15.580223
H   81.719833    1.833056   85.231842
H    9.601710   91.496407    4.459603
H   43.240055   84.241432   95.507828
H   99.137161   93.311340   11.993793
H   91.679970   45.155701   71.021370
H   84.247276   42.073524    7.972865
H   22.944901    8.437212   34.300358
H   98.561111    8.334829   56.729706
H   49.326397   74.359154   35.659950
H   28.803215   99.892143   10.729982
H    5.118116    7.440145    5.014698
H   95.588684   34.626659   50.068611
H   11.518795   92.926170    3.148905
H   57.230736   90.785110   14.727952
H   45.077564   34.876640   59.727043
H   17.162531   63.509995   18.756336
H   90.771568   42.009686   67.326653
H   56.110237   43.818611   82.222000
H   67.282852   86.376099   59.796185
H    4.610960   45.844376   57.043285
H   55.864372   62.946671    9.860428
H   11.264696   48.929352   93.327118
H   95.267632   23.784306   14.260857
H   44.808220   19.038635   48.897831
H   46.705948   20.846127   59.396080
H   42.332180   96.757408   65.962975
H   54.640530   34.330074    4.018261
H   20.029795   63.423965   27.318928
H   29.402338   80.546921   61.649632
H   19.531750   89.693459   34.903275
H   52.942352   41.792965   62.225555
H    3.749919   91.540825   77.006889
H   88.993027   70.580734   18.581434
H   40.849640   70.298355   52.969116
H   70.372261   73.891602   10.118237
H   24.793776   53.763252   98.810074
H   57.952194   99.181709   60.772781
H   59.418949   55.688927   18.999985
H   33.771385   13.102013   13.897558
H   20.213686   85.685188   54.227638
H   38.529892   71.904106   95.541389
H   13.391826   45.034889   66.919495
H   87.391663   88.988121   17.765543
H   73.664001   95.721245    9.592159
H   41.348366   47.297653   27.712015
H   33.069805   55.378082   95.978996
H   87.570473   92.150139    7.819407
H   23.644455   38.090950   61.256950
H   45.735931   96.773491    7.605219
H   21.519506   50.227173   92.158211
H   18.543541   54.058239   10.664444
H   87.169594   76.190804   13.177707
