100
TIME:    7.279, STEP:  7279
H   25.072977   54.501595   92.481888
H   99.449203   99.301048   37.069386
H    4.890141   97.584892   37.896755
H   82.698364   32.756561   41.176144
H   29.972845   56.201290   68.341721
H   15.139285   93.322212   99.609543
H   71.476501   52.851536   59.680431
H   47.771248   18.328358   39.860474
H   74.696159   86.447144   41.899929
H   75.944283   20.900652   92.720039
H   23.180176   59.128910   38.599434
H   78.022614   88.549423   74.802025
H   79.592003   21.397182    1.739979
H   94.669075   82.639961   11.174549
H   69.016731   19.836662    0.856597
H    8.850143   75.080994   28.820654
H   38.773293   63.418629   36.024441
H   56.725765   40.642776   47.198074
H   58.634937   83.716309   46.846951
H   96.410172   51.233387   11.920725
H   32.330536   31.569931   59.675968
H   60.225159   53.746964   99.404221
H   88.557060   35.422585   24.089949
H   42.734009   23.906221   66.472961
H   69.245552    8.898262   90.296974
H   13.286205   11.517033    5.895995
H   34.402370   39.897690   44.395893
H   18.361130   96.198830    7.376535
H   69.445656    9.500036   13.090090
H   80.102631   10.684549   62.048149
H    2.528751   74.777084   33.487694
H   25.357632   51.398457   25.410545
H   83.080208   35.915596   53.546761
H   85.656517    6.645826   65.098557
H   99.801292    8.547554   67.913177
H    5.388968   55.551437   96.541725
H   77.949387   37.963501   82.022125
H   63.135803   25.742710   36.099960
H   37.823727   22.819166   38.922821
H   77.592522   30.747446   10.730668
H   37.783020    5.944841   13.834738
H   86.779396   70.147751   51.565022
H   73.930328    7.152464   27.243755
H   14.555639   34.820274   92.437737
H   25.256813   44.699062   78.993599
H   84.166130    1.752353   12.732988
H   98.601852   20.695015   95.335091
H   56.631893   70.341324   18.960781
H   77.801582   29.603245   54.113205
H   78.563721   41.524471   74.585243
H   43.001781   66.903046   30.157360
H   58.888088   88.301575   96.215576
H   59.862301   64.214844   80.116341
H    8.129425   88.439331   53.018143
H   61.230179   96.501259   62.262127
H    2.661745    4.876922   44.832458
H   57.707623   79.513847   48.280968
H   84.046555   89.475395   26.065512
H   64.355034   46.330769   52.676445
H   78.679420   87.276077   56.578514
H   18.865427   40.064247   46.867264
H   40.571999   60.190170   66.004227
H   68.233025   10.576873   34.327576
H   42.875820   81.414871   29.514492
H   21.238026   79.483124   73.430458
H   54.186920   80.412743   76.575134
H    3.560298    0.017517   18.492384
H   77.555367   33.831779   14.180892
H   19.685753   26.763809    3.705531
H   77.857475   14.250729   86.404953
H   90.890663    0.138538   74.834511
H   73.858894    9.908172   89.594185
H   32.387329   58.262157   75.117004
H   69.966652   88.731506   70.660187
H   13.108293   39.033123   53.200336
H   97.735069   74.089378    6.145637
H   27.871613   95.784004   19.835356
H   73.960983   74.765160   16.430765
H   10.568728   32.138004   98.890541
H   42.555618   12.497666   93.828926
H   53.313316    4.586953   15.038741
H   87.506966   91.676086   78.042656
H   78.288704   28.848669   23.158104
H   50.932407   35.039303   98.593681
H   97.902832   93.576561   42.134895
H   83.764877   76.425247   47.259125
H   53.302738   74.109871   70.634148
H   73.095360   22.600687   20.105995
H    6.742490   88.889534   68.657967
H   22.777098    9.796879   84.423264
H   21.909412   66.475151   87.180954
H   16.871187   42.929413   72.217903
H   52.051380   45.926212   81.900826
H   50.753159   54.781334   17.610544
H   30.743855   97.720413   83.350464
H   95.137115    8.292537   91.478935
H   84.829765   85.406723   18.566933
H   24.227167   46.623692   32.756348
H   61.958275   68.234688   35.344929
H   91.338326   91.843582   96.530624
