100
TIME:    4.588, STEP:  4588
H    7.055014    1.278435   94.945572
H   73.766121   53.481949   67.395142
H   58.618233    3.983538   69.489937
H   82.246689   43.625298   88.679085
H   54.076752   40.505936   41.304398
H   56.878094   96.237572   33.110958
H   12.513765   71.142319   49.240582
H   59.278542   85.522247   86.938911
H   40.846138   45.175949   11.288219
H   49.461967   82.260246   87.350525
H   73.490448   50.850605   97.810410
H   80.729942   53.663322   66.350197
H   51.297318   84.144417   69.135254
H   27.909885   90.934364    6.388080
H   36.308540   60.208679   30.230843
H   17.050613   10.445854   52.197205
H   55.167488   85.431259   91.052086
H   99.179665   71.580040   40.482372
H   16.728035   70.827057    5.077083
H   68.906487    8.384745   28.704966
H   92.018303   99.466705   32.718269
H    2.236374   50.174622   28.567673
H   24.487617   57.308311    1.081206
H   92.766556   91.707520   66.329300
H   65.490875   22.307983   70.423256
H   25.631628   91.022522   58.982777
H   66.451500   51.760525   91.000160
H   45.419437   70.592041   18.425745
H   10.932714   65.351219   40.294350
H   76.917770   77.286552   48.121162
H   96.621010   33.470600   46.390984
H   55.446301   25.750885   74.529915
H   93.529518   32.801872   11.120229
H   71.955322   53.259888   78.466331
H   66.725967   12.102585    4.106597
H   71.464706   44.780750    5.003467
H   19.848242   36.514145   69.981796
H   74.360390   74.991280   46.203289
H   51.413006   81.453239   99.701385
H   31.055449   82.670280   99.008240
H   21.694256   13.610150   50.436993
H   19.277718   17.769445   18.349352
H   50.759968   91.012817   32.870209
H   86.384476   89.658905   29.325399
H   58.679783   50.871010   48.718403
H   18.896206   50.425892    1.798570
H   77.578415   74.348717   69.507469
H   56.484440   42.624878   52.457359
H   99.144394   52.470760   61.459015
H   22.101742    0.563643   62.772209
H   43.194584   26.701977    1.791626
H   28.100107   38.007137   72.869080
H    4.040244   48.611511   36.405071
H   70.442223   32.347237   34.271324
H   75.491455   60.669971   39.370396
H   99.306839    7.707592   36.440460
H   87.111191   57.161949   92.344337
H   84.423721   43.607903   95.378036
H   52.121689   32.623932   59.260857
H   56.257000   80.437256   33.116951
H   49.115479   65.206932   56.678307
H   36.077538   85.237625   87.761536
H   85.539955   94.205856   18.857536
H   58.090324   66.755951    2.573139
H   14.427247   94.407867   22.829721
H   19.496979   14.189638   17.461691
H   19.464750    6.982674   88.570358
H   63.441216   79.929581   85.535530
H   85.567398   20.121902   72.482178
H   23.339571   78.906250   92.072113
H   76.342522   83.232208    7.110583
H   95.665924   99.257965   92.533562
H    7.844857   91.365822   44.113213
H   29.209194   59.043003   30.550011
H   83.376839   35.180386   49.199795
H   34.121315    1.619954   87.215256
H   83.515854   28.888691   72.189857
H   47.532909   50.723095   67.819344
H   81.523781   40.042324   68.874657
H   74.520966   59.082798   25.660820
H    0.652055   76.746628   54.202709
H   85.568367   74.190689    3.131377
H    8.074854   83.846863   66.882721
H   65.795746    4.763851   44.373604
H   28.932238   61.904167    2.997337
H   45.700291   77.580482   60.387863
H   73.576866   69.767944   42.317139
H   29.805834   37.967720   48.029915
H   50.898056   38.719231   90.666878
H   60.698673   20.512276   88.227295
H   11.782584   21.171028   30.351969
H   17.763464   40.541382   20.948961
H   79.553261   65.181770   73.801620
H   90.675156   91.528763   36.164043
H   77.266701   38.764809   21.513737
H   72.871567   14.556677   30.472954
H   98.428856   30.976391   73.328781
H   23.706671   55.301758   82.618355
H   90.151489   56.627361   60.744904
H   24.189638   60.895222   55.764347
