100
TIME:    4.570, STEP:  4570
H    8.272243    2.929114   94.962051
H   74.263252   52.506500   66.260254
H   58.308830    2.688585   69.701149
H   82.243668   44.366875   89.665657
H   54.237976   39.063156   41.792465
H   57.157284   96.257072   31.328314
H   13.457113   69.926956   47.832958
H   60.693306   83.964935   88.591530
H   41.288612   46.906570   12.421288
H   49.953880   82.001793   86.645752
H   75.164764   50.126331   99.544327
H   81.416862   52.761070   67.631477
H   52.445938   85.232887   70.923828
H   28.801083   90.989845    5.018222
H   36.089638   61.816528   31.096085
H   17.774406   12.020229   53.691345
H   56.614937   84.240616   89.413475
H   98.794868   72.455925   41.106396
H   16.447678   70.072021    4.128808
H   69.391533    8.767000   27.479441
H   93.086449    1.258669   33.206749
H    0.510696   50.150726   30.100540
H   24.727943   57.454704    1.596225
H   94.438950   91.491638   67.666061
H   66.134674   23.735519   70.290321
H   25.713682   91.554535   60.675358
H   68.003593   52.508831   90.643105
H   46.938160   69.751862   17.830698
H   10.541291   63.718105   41.145241
H   76.227554   77.732048   46.690193
H   95.912666   31.856564   47.815086
H   54.309765   26.248154   76.196266
H   92.261696   34.118858    9.498647
H   71.194794   54.909485   79.224663
H   67.173386   13.463276    3.010574
H   69.899979   43.370930    5.060098
H   18.121809   37.173325   68.563461
H   75.104439   75.320595   44.933132
H   52.172848   81.845451    1.445692
H   32.750816   84.355309   97.592102
H   22.924381   12.992581   50.012920
H   20.895523   16.961607   17.503817
H   50.604923   90.904877   31.570093
H   87.533920   89.357330   27.565458
H   60.241077   51.581139   47.178120
H   19.128429   50.082569    1.725395
H   77.437790   73.369835   69.334709
H   56.483479   42.439484   51.343620
H   98.618149   53.961468   62.177109
H   21.724224    0.289672   64.031105
H   43.195957   28.439808    1.601872
H   27.225389   39.677471   74.050659
H    3.666871   48.507141   37.450558
H   70.859154   32.640984   33.477013
H   76.924622   59.092472   39.217274
H   99.284317    7.726526   37.053223
H   85.969986   57.681328   90.632393
H   85.764053   45.307762   95.841660
H   50.702118   31.863392   60.642799
H   57.444759   79.053802   33.628914
H   47.980042   66.044090   58.081673
H   36.716393   85.405167   88.575897
H   84.318001   95.434128   20.091850
H   56.854225   66.657898    3.061893
H   13.712792   95.845428   21.153414
H   20.602684   15.084440   16.397390
H   20.908972    6.360384   87.701340
H   64.684593   78.900162   84.675026
H   84.670364   21.415268   73.611023
H   22.974894   78.000977   92.110016
H   76.914085   84.456909    7.326516
H   97.150177   99.855347   91.215752
H    9.018538   92.256264   44.574776
H   29.605526   60.182148   31.619530
H   82.508919   35.154705   47.835293
H   33.695732    0.466304   88.426498
H   81.881638   30.448818   71.871529
H   46.687237   51.900143   66.825356
H   80.660530   40.095196   68.673882
H   75.403717   60.063190   27.211540
H    0.299826   76.560410   53.126873
H   84.217873   74.073135    4.636568
H    6.936274   83.545837   65.168579
H   64.557312    3.223533   46.017570
H   29.808741   63.030128    4.742211
H   46.114613   76.919380   59.137894
H   72.374687   71.076691   41.458832
H   29.516138   39.408852   48.217094
H   50.524521   39.721458   90.814095
H   62.290180   21.252892   87.583771
H   11.045951   20.199081   29.971842
H   16.431509   39.187729   20.605982
H   78.399422   64.641518   72.409653
H   88.935471   90.436996   34.950466
H   77.577888   40.377190   21.100170
H   71.384842   15.267458   31.402672
H   99.857628   29.943401   74.363968
H   23.640615   55.148499   82.906471
H   91.008972   56.549770   62.252640
H   23.071642   61.357059   57.498402
