100
TIME:    5.466, STEP:  5466
H   47.678871   20.761646   94.141739
H   49.517159    1.057072   22.753906
H   73.714508   67.149933   59.184345
H   82.394058    7.450539   40.553017
H   46.212585   10.881426   17.499584
H   43.259823   95.286369   20.062346
H   66.495552   30.428097   17.901400
H   90.269470   61.479336    6.323264
H   19.263222   60.759781   56.022705
H   25.468466   94.867027   21.731855
H   91.821030   86.179062   13.237061
H   47.220146   97.673180    3.853635
H   95.270187   31.051186   81.892509
H   84.437477   88.228127   73.205772
H   46.986122   81.782486   88.026703
H   81.747467   33.652786   79.315155
H   84.563850   43.503620   70.979889
H   17.954412   28.861580   10.046312
H   30.403244    7.657229   51.331028
H   45.252312   89.737343   88.483345
H   39.916527   12.059280    8.888069
H   86.411087   51.340179   53.797882
H   12.764590   50.167595   75.961349
H   11.187420    2.217501    1.119874
H   34.087799   52.679405   76.907509
H   21.629210   65.072113   76.419281
H   90.739563   15.261311    8.419352
H   71.335854   11.574089   47.450813
H   30.024193   45.010044   98.792206
H   10.584402   55.556267   17.919880
H   31.176189   12.202672   76.926414
H   10.883764    1.494446   93.249077
H   55.375767   68.563789   90.217400
H    9.052632   72.796471   41.476616
H   44.901901   45.732468   57.568192
H   47.787418   13.549093    2.241681
H    4.059919    4.357944   39.164654
H   38.072117   58.925900    8.162725
H   14.349681   62.322014   14.616346
H   48.356976    0.474147   68.088951
H   61.689224   43.733795   71.122292
H   40.367546   57.176147   59.592686
H   58.322697   96.277924   96.289345
H   30.321148    4.389464   15.172805
H   82.520363   16.232506   23.851057
H    7.567345   67.172409    5.367400
H   84.437790   22.097832   77.934319
H   56.531330   51.667999    6.783000
H   24.807236   79.755432   26.432526
H   40.516216   13.927366    1.365993
H   43.127598   41.936752   11.047429
H   70.769936   56.536160   15.228584
H   22.252842   53.702454   85.412560
H   50.109825   18.018913   73.016075
H    5.583540   37.619022   46.839344
H    0.403603    6.784021    6.551270
H   42.771957   31.827812   75.849495
H   19.045967   60.691475   72.763535
H   21.368872   69.721001   91.855278
H   98.320084   47.923710    8.144539
H    4.499710   24.378094   88.223686
H    4.918441   77.065323   48.036095
H   45.147472   34.293503   58.650421
H   18.379585   71.538757   78.738770
H   49.278419   24.283409    4.593502
H   65.560966   70.542046   69.375908
H   49.021332   37.336361   30.961479
H    2.791650   30.144258   27.509008
H   29.326704   57.034431   17.413948
H   41.126007   23.065689   90.223297
H   48.462914   23.494019   96.578560
H   23.270729   70.119019   56.817688
H   50.598175   47.934525   21.599190
H    9.882732    3.476394   78.382591
H   25.709536   36.433025   15.757866
H   54.880302   57.893250   28.137381
H   63.233326   52.790218   87.717232
H   88.782944   93.311882   16.305674
H   23.627995   37.463360   78.668022
H   31.464619   11.259658   50.020416
H   17.832834   85.829941    6.679362
H   51.449379   79.918671   29.710238
H   63.613014   98.530212   50.498478
H   26.202345   79.896408   64.181305
H   86.179955    6.982553   17.884865
H   25.490589    9.828605   21.359009
H   32.216515    5.930142   84.183441
H   43.937309   67.679749   38.903809
H   69.118271   89.834465   83.485970
H   83.071014   84.389572   19.614233
H   47.713921   68.578491   48.893719
H   82.727547    6.575029   37.675880
H   35.834503   91.526802   41.698750
H   75.535225   44.789013   95.363197
H   62.087654   60.119595   41.688206
H   45.390793   79.885529   85.122787
H   28.736692   81.363319   22.834671
H   26.928701   62.777405   68.564674
H   48.325378   60.412075   87.202065
H   78.724823   38.367802   71.184250
