100
TIME:    0.215, STEP:   215
H    2.783249    2.304791   98.949173
H   95.289574   16.401699   91.562683
H   83.458435   89.372047   20.815414
H   81.512695   23.792505   28.378031
H   93.245316   89.990723   59.875648
H   24.682384    0.979650    0.037163
H   41.702106   75.856087    7.265851
H    2.987722    7.202837   88.453331
H   48.342888   65.622009   86.553673
H   68.964989   19.473766   16.108217
H   80.256256   74.893555   19.039921
H   47.635624   34.467369   77.625282
H   29.586586   48.699646    3.760080
H   44.436436    4.414372   73.602318
H   83.117821   50.817368   40.437733
H   92.878891   92.931587   15.192768
H    6.780670   96.215401   92.930244
H    5.739135   84.245102   92.092575
H   48.612190   87.372482   74.688828
H   86.829536    1.024084   30.855753
H   51.518143   34.813614   51.406273
H   82.963356   44.383713    0.948147
H   82.873466   92.873634   26.199299
H   99.065674   39.260349   91.106812
H   21.893484   69.122917   38.146011
H   45.671482   21.204845   69.019981
H   43.539242   33.539471    4.232677
H   14.399994   66.474655   73.882370
H   15.846299   68.598473   47.008728
H    9.237977   85.518448    0.480960
H   24.559237   41.322502   92.398705
H   79.332642   46.570312   79.360466
H   85.502258   52.751610   17.165854
H   87.186241   54.019196   62.693642
H   75.427666   42.667892   37.820190
H   91.248253    1.374870   19.904547
H    0.420721   96.661476   25.406322
H   55.102440   55.019123   37.613071
H   41.054989   75.918373   21.519707
H   42.942707   92.055443   54.950592
H   20.549099   63.555660   47.404461
H   12.298203   21.506227   12.901162
H   13.093400   64.789230   17.003082
H   65.630249   16.374880    1.753496
H   38.005859   23.409035   74.505554
H   75.205544   67.245903   84.161415
H   38.350269   37.339062   29.460394
H   56.250896   97.596069   81.880936
H   71.312553   14.643360   35.897484
H   30.399023   34.021832   68.626480
H   43.527370   48.887177   55.685200
H   15.581616   43.788696   59.948853
H   13.339090   23.255371   90.383125
H   71.707169    3.694172   41.303242
H   23.643173   77.353317    2.230538
H   93.835251   12.306156   85.307693
H    9.882599   83.343102   76.435692
H   10.050100   56.582558    8.016914
H    7.234306   47.853195   94.977600
H   44.831047   44.313904   57.493088
H   73.262985   68.570908   97.633301
H   91.280365   25.944168   85.626694
H   88.816216   92.491783   18.808319
H   57.803947   42.964027   21.303160
H   40.855759   43.672695   15.583367
H   88.137672   31.584858   58.898342
H   70.318718   55.794048   77.442307
H   65.514244   29.833763   76.480843
H   67.619438   34.337791   46.748737
H   34.742035   58.958855    1.278652
H   15.205240   80.775795   59.568821
H   56.238537   44.390129   72.363747
H   92.972961    7.672802   56.236629
H   25.458641   35.773975   90.430519
H   72.536667   28.949617   17.696350
H   30.740988   21.351664   81.462509
H   86.475677    7.909338   94.836975
H   42.081421   36.662327   26.313488
H   71.859383   52.871098   20.085781
H   88.981461   97.244530    2.398802
H   15.089251   31.505751   92.838974
H   57.455471   45.631668   68.802551
H   31.399872   10.845952   50.377502
H   64.961090   30.559422   43.792305
H   41.861351   35.435677   26.910519
H   46.346928   16.949438   56.714085
H   81.514076   87.720665   33.795208
H   59.416245   88.080711   93.503685
H   60.144966   82.201546   26.441860
H   47.326546    0.440776   31.897619
H   32.821262   85.040695   38.002148
H   94.194450   11.676424   37.621078
H   99.079308   34.073463   35.548058
H   68.009163   26.273546   41.314861
H   52.874683   30.471241   21.027420
H   11.679749   87.241386   56.343925
H   45.536430   80.018867   24.824120
H    7.654658   18.068268   52.595314
H   98.470116   37.777073   27.042400
H   52.593731   73.181007   76.978378
