100
TIME:    8.444, STEP:  8444
H   46.288567   47.665977   91.415298
H   67.273758   62.433727   10.525825
H   24.915529   81.399368   24.220276
H   82.893906   84.757072   77.319038
H   19.533602   49.581089   36.752899
H   97.072754   92.060081   14.983268
H   10.420693   31.517290   50.784962
H   56.204544   19.115633   32.893768
H   46.058235   74.436462   68.568680
H   44.124367   37.628330   38.337471
H   14.814713    6.005330   26.381025
H   33.557526   46.944592   91.876320
H    5.303774   50.881706   85.965530
H   36.984367   79.049110   99.831200
H   83.166817   15.773117   44.828270
H   62.008392   73.185814   32.115509
H   45.090828   40.475330   42.078987
H   81.633224   83.954033    6.816478
H   76.782104   32.589626    8.225604
H   65.016891   26.496412   91.239418
H   63.197792   15.590038   28.059927
H   71.914848   55.293518    0.193705
H   73.002632   25.950556   90.756882
H   34.488327   37.842987   79.949539
H   27.577934   16.508415   98.900795
H    7.793083   77.174362   96.263885
H   33.943123   91.469559   67.512863
H   20.061777   50.577076   45.886955
H   94.777153   15.197891   58.019432
H   24.773232   81.850266   54.662201
H   48.380985   79.245155   41.316673
H   98.916740   19.214123   17.560661
H   65.142105   50.678902   58.499161
H   34.881790   99.880585   16.019117
H   70.807838   20.340691   38.792492
H    6.660371   46.801178   92.879768
H   89.688499   95.296638   73.819542
H   14.986658    4.421019   18.311340
H   88.647697   97.438316   26.025772
H   67.862167   21.684076    2.390496
H   58.163803   45.915337   41.281460
H   88.599487   74.716309   11.042352
H   83.956268   14.140846   11.392878
H   40.165760   54.377502    6.345019
H   24.201668   98.738152   78.686943
H   69.127220   23.968781   17.465979
H    7.708282   84.051216    6.520502
H   56.702999   82.340454   91.044441
H   11.858490   33.117966    7.638504
H    3.023340   59.256519   93.127800
H   42.921787   54.429939   42.440247
H   15.506975   80.198730   19.740406
H   84.022072   70.969910   12.457739
H   81.147400   69.436264    4.427378
H   68.471016   98.596161   72.165192
H    4.112751    3.651455    5.173111
H   31.564835   45.898506   59.082130
H   97.298523   79.455482   96.056053
H   56.236141   95.557060   63.241257
H    1.802888   76.822525   23.443138
H   92.354233   85.886108   56.034389
H   99.223839   49.346512   13.289848
H   47.324238   31.080057   54.440033
H   22.873749   87.761078   97.882675
H   67.481857   86.435822   81.921677
H   82.620735   22.496941   45.459538
H   10.090326   40.293011   74.738266
H   97.080765    0.458087   69.874634
H   77.750549   43.054344   30.639740
H    1.518018   72.763443   83.934021
H   53.895359   20.870682   60.862190
H   77.923981   71.225975   74.987106
H   56.426712    0.637383   45.246792
H   44.322002   14.999512    1.440395
H   69.227173   40.748554   41.531330
H   25.277964   48.754646   27.755648
H   33.678543   94.950195   40.497910
H   28.691980   98.592094   80.775085
H   66.431953   28.716030   11.891291
H   85.423973   49.035027   93.463158
H   76.120552   16.639414   84.669281
H   74.926559   99.231094   80.578621
H   51.976875   48.331699   34.107098
H   31.083424   34.730934   92.188713
H   41.178055   20.698238   29.201916
H   56.955593   19.215256   28.160339
H   31.110521   89.404564   26.185799
H   91.831779   29.376522    8.026871
H   30.922901   24.023672   59.129768
H   19.775518   61.869247   26.070147
H   69.585960   29.382534   11.783957
H    3.069391   30.548504   94.420738
H   26.730045   80.879387   71.992065
H   63.344582   25.460560   96.164787
H   10.598648   93.367050   10.121012
H   91.361343   62.287537   31.305519
H   92.357628   52.262505   51.566643
H   21.978441    4.269783    9.367075
H    6.460427   73.265434   37.764187
H   63.699055   61.944141   84.302872
