100
TIME:    4.162, STEP:  4162
H   35.862701   40.344666   95.335587
H   85.531563   30.396334   40.533295
H   51.295708   73.335075   74.488625
H   82.175186   61.175957   12.029111
H   57.892395    6.360156   52.855331
H   63.485592   96.699089   90.922752
H   34.840145   42.376293   15.926827
H   92.761299   48.667217   26.052715
H   51.318031   86.133987   38.103863
H   61.103905   76.143517   70.670898
H   13.115921   33.709461   38.844624
H   96.987053   32.310020   96.673836
H   78.481339    9.905502   11.464920
H   49.002861   92.247414   73.970749
H   31.127571   98.261108   50.709721
H   34.180176   47.705376   87.558533
H   89.423775   57.253483   52.271629
H   90.076134   92.302452   55.252651
H   10.092911   52.955879   82.632416
H   80.385918   17.431459   99.700981
H   17.297729   41.877453   44.278954
H   61.395340   49.609100   64.845535
H   30.175331   60.772942   13.269977
H   32.346626   86.598328   97.965988
H   80.727448   56.093002   67.277138
H   27.573576    3.614332   99.043373
H    3.184533   69.469437   82.549843
H   81.364105   50.707794    4.343638
H    1.669104   26.700993   60.432106
H   60.582657   87.829948   14.255741
H   79.856880   95.270485   80.094749
H   28.548292   37.519577   13.966835
H   63.524342   63.970543   72.742783
H   53.956146   92.300354   96.413506
H   77.314865   44.304893   78.164627
H   34.432819   11.414885    6.343736
H   78.988571   52.114731   36.414539
H   91.969551   82.785072   16.142910
H   69.394958   90.735588   40.983238
H   71.178825   22.550518   65.492981
H   50.808273   98.993942   40.400616
H   57.564285   98.649780   98.336166
H   47.090580   88.458221    2.100014
H   13.587282   82.521637   87.672974
H   95.633202   67.678101   12.264155
H   24.392162   42.300587    0.066790
H   74.250290   51.181847   65.418816
H   56.461689   38.237213   26.098869
H   86.689926   87.753021   78.451141
H   13.167155   94.082619   92.569191
H   43.227085   67.829231   97.300278
H    7.398455   77.537262    0.833219
H   95.205208   46.141418   61.148251
H   80.309593   39.299248   15.474048
H    9.409597   23.335817   35.746510
H   98.773819    8.155844   50.942505
H   60.103146   69.453911   51.828316
H   16.144524   83.837914    6.350996
H   18.525175   14.623251   91.964058
H   84.369659   47.693905   45.233406
H   22.242880   85.019676   89.893837
H   51.197105   89.202774    7.035766
H   56.619541   23.275810   48.069633
H   28.836153   64.435364   14.140324
H   97.518547   28.431595   83.157799
H   45.666817   35.367378   92.273727
H   53.643631   92.254089   68.003586
H   92.867821   55.566666   65.170265
H   64.337601   50.731552   99.198181
H   14.708872   57.480453   92.969147
H   89.869530   12.217144   12.221329
H   30.791515   13.396548   61.345112
H   35.621811   12.437695   55.036873
H   38.589046   86.000114   55.861961
H   62.836254   34.572613   16.905821
H   24.049189   74.318810   15.880066
H   44.837791   65.813034   64.656075
H   27.518658   78.578194   44.292236
H   61.093979   41.293621   64.122978
H   95.412750   82.282860   62.361198
H   92.318527   72.339462   28.741461
H   53.605606   71.408585   38.754028
H   81.126961   76.729431   26.309948
H   36.489197   68.310371   83.282425
H   49.674759   88.548927   44.293137
H   55.505909   61.933968   30.805252
H   45.125298    0.741609   22.003874
H   22.949701   72.074501   52.459831
H   42.057724   62.438622   94.151009
H   98.361374   38.040184   72.997223
H   94.348755   98.168266   21.355631
H   86.242279    8.505119   12.831734
H   52.245735   52.398743   40.858379
H   49.501461   65.690292    7.441332
H   84.631477   76.923393   11.725638
H   37.685745   31.377754   52.476280
H   32.241974    6.529288   97.828201
H   22.143362   51.674622   89.437111
H   10.445091   54.791042   96.425041
H   97.729744   71.827705   96.801041
