100
TIME:    7.793, STEP:  7793
H   90.313713    7.365911   92.011307
H   85.253342   27.155003   69.479996
H   13.725473   34.563049   31.861599
H   82.784637   11.578522   13.001322
H   25.367033   97.400658   54.404678
H    7.167838   92.765358   50.513405
H   44.538570   87.558151   99.875900
H    7.371864   62.794346   92.666054
H   62.061058   37.028290    9.544922
H   61.905281   28.280931   12.846317
H   75.369156   79.810944   89.088272
H   58.406105   14.313202   38.214348
H   46.816032   90.286133   50.659512
H   69.218483   81.055672   50.291599
H   75.259773   73.923660   76.135529
H   88.183090   30.124817   86.153595
H   97.440224   97.418045   82.815887
H   67.716431   15.631409   29.382370
H   66.640030    5.277609   73.926407
H   82.559402   40.319828   46.916267
H    1.829057   80.399719   45.727161
H    9.502839   54.429306   55.632339
H   81.694420   31.242613    9.382771
H   94.975662   30.055147   28.297516
H   50.861519   68.137238   94.092995
H   10.862713   96.365829   57.527237
H   90.079834   18.530626   54.595737
H   74.990440   20.190588   24.366968
H   80.621956   56.133808   88.793327
H   99.812134   97.962357    2.910155
H   22.758490   20.869339   92.821724
H   57.812038   37.198673   77.827034
H   19.285048   98.309898   99.851936
H    7.374173   59.540749   43.443985
H   87.009331   69.630577   99.183289
H   50.069675   95.809647   94.926064
H   27.249432   19.138918   22.523100
H   41.892990   16.335011   72.370903
H   16.126019   11.621298   89.113014
H   29.180283   82.628952   51.172157
H    2.655708   23.579924   25.944181
H   43.462410   72.163406   77.805901
H   78.353790   10.235750   64.368721
H   81.734009   43.447594   42.693462
H   80.670372   24.420940   22.978264
H   77.530937   11.554423   14.821192
H    2.619071   48.648323    0.268515
H   56.663265   75.635361   50.764217
H   92.828804   87.034004   33.607635
H   89.355713   49.347881   38.645767
H   42.966488   17.279692   35.576218
H   83.868103   40.606258   62.474915
H   70.522484   67.195190   50.265816
H   96.226410   80.055145   75.700150
H   20.304752   41.546280   66.632248
H    3.301931    4.336244   27.334686
H   90.294601   64.682701   97.166496
H   45.772629   40.934959   12.824773
H    4.891301   68.051277   13.217289
H   44.760597   26.783932   41.959129
H   51.289257   16.161350    6.793139
H   22.329140   55.405930   42.746094
H    3.126814   75.502594   99.081055
H   78.171745   84.214828   15.557874
H   41.640602   38.430325   21.297262
H   22.611515   54.860191    6.967044
H   62.321564   17.787163   43.308758
H   42.050026   63.227409   38.753067
H   45.304970   89.831062   71.470367
H   88.296532   40.066090   85.314774
H   74.569344   65.166519   68.669899
H   31.533115   92.841209   27.270288
H   98.872437   32.839016   61.939991
H   58.651035   56.199612   40.119476
H   37.867203   39.789974   92.172287
H    9.886542    7.030572   71.558388
H   74.553429   51.297287   28.950903
H   98.109634   41.157024   44.818569
H   35.215630   30.628223    4.626198
H   17.349300   84.497520   49.547249
H   63.375908    9.904519   45.759872
H   26.077297   95.009369   35.042034
H   10.798947   37.444614   72.109650
H   86.295128   79.022949   51.646412
H   72.875763   61.420506   92.309151
H   71.937607   95.303391   82.952698
H   87.631630   36.737892   95.143578
H   81.361900   81.470825   14.776665
H   17.410896   60.270363   64.454109
H   77.333344   88.650284    2.799071
H   42.944386   94.231590   98.035690
H   54.901981   81.587646   82.013832
H   84.999893   61.349506   21.649233
H    0.429768   85.965172   52.268780
H   21.855755   51.680847   95.162048
H   37.591461   87.995361   64.930321
H   44.030388   14.903817   89.005898
H   23.235025   72.055916   22.437040
H   37.472374   70.454262   92.291405
H   23.264856   78.651627   47.016308
