100
TIME:    7.974, STEP:  7974
H   78.073235   90.767479   91.845596
H   80.254410   36.963680   80.891922
H   16.836687   47.585129   29.737053
H   82.815018    4.120861    3.079832
H   23.745142   11.908513   49.496887
H    4.360772   92.569267   68.438789
H   35.053028   99.779297   14.030354
H   93.145615   78.453880   76.048058
H   57.611732   19.625439   98.151657
H   56.961586   30.879824   19.933891
H   58.532974   87.093918   71.652771
H   51.497360   23.385784   25.330719
H   35.274300   79.329910   32.673023
H   60.256310   80.497780   64.066277
H   77.458199   57.755844   67.430206
H   80.905640   14.293907   71.129181
H   82.885323    9.389706   99.293030
H   71.585770    6.824220   23.108158
H   69.459869   12.871228   83.463043
H   77.681992   36.476727   59.239601
H   91.088264   62.381344   40.815228
H   26.855486   54.669586   40.218506
H   79.277809   29.771242    4.203975
H   78.158813   32.220428   14.854917
H   44.387764   53.782967   95.429726
H   10.009304   91.029953   40.493584
H   74.472672   11.006452   58.187511
H   59.717850   28.639059   30.349806
H   84.557579   72.555710   80.237144
H    6.752257   93.482651   17.298710
H   29.881968   37.099770   78.501579
H   69.240532   32.198360   61.070946
H   32.034397   85.066872   16.157850
H   15.022056   42.953133   35.818542
H   82.504768   55.926323   10.195797
H   65.803879    9.986684   94.357124
H   44.609173   12.509809   36.785244
H   34.412544   13.022493   85.144417
H    8.485726    7.678080   71.572563
H   12.132130   65.685059   65.413452
H   90.285538   29.789923   30.208464
H   28.208763   72.873199   87.047020
H   79.911469   11.321499   77.443275
H   70.175705   46.485619   60.389957
H   64.969307   17.280201   38.467072
H   75.194420   15.006034   15.556532
H    4.033996   58.491524    2.006835
H   56.674313   77.499603   61.963482
H   98.120491   72.042732   26.387341
H   93.156006   52.102818   25.989960
H   42.954060   99.804848   37.484650
H   92.664566   23.810461   50.593475
H   74.275826   68.244690   39.754250
H   92.033936   77.102737   83.687393
H    5.892802   57.408913   68.170593
H    3.527366    4.145849   21.173019
H    1.769883   59.460060   14.381322
H   32.294846   23.841597    8.162440
H   19.166603   75.698814   99.321808
H   32.817017   40.696705   36.811058
H   62.706707    7.744289   92.680641
H   15.905098   53.721207   34.555855
H   15.414996   63.151642   86.669342
H   90.600029   85.200806   10.643523
H   48.825531   23.973852   38.153214
H   11.493034   45.862114   17.669468
H   47.799805   24.044804   52.047222
H   29.547173   73.578789   47.405914
H   54.326523   76.825554   60.118729
H   91.972542   49.156689   84.930878
H   68.821953   52.851471   66.499092
H   16.628151   86.831444   40.537037
H   87.071091   23.885881   57.298717
H   54.667080   44.744877   29.365038
H   46.586334   40.056492    5.895751
H   14.165669   18.631008   59.379196
H   90.991905   35.630745   32.160889
H    6.612674   29.322536   54.815052
H   43.894714   30.096569    6.646139
H    8.473142   74.637749   33.953896
H   66.919350   11.777047   56.578003
H   39.658951   96.183151   19.899689
H   22.247469   40.471592   89.346298
H   98.748268   94.511353   35.115414
H   64.062729   50.098339   74.763176
H   67.772751    1.951346   95.521835
H   99.720207   23.577721    3.774370
H   84.272881   66.987732   12.899994
H   21.167690   50.192406   62.973763
H   61.331005   81.204361    9.269167
H   50.351643    4.005294    1.858144
H   68.294151   95.200760   85.463371
H   96.602386   66.779961   35.646240
H   17.922503   96.946251   64.473351
H   18.725899   35.467461   99.321381
H   52.541306   80.847717   55.581490
H   29.663404   25.290447   78.596519
H   22.885653   81.012566   18.803148
H   28.849907   71.235863   77.131660
H   34.506931   74.006210   29.579426
