100
TIME:    2.340, STEP:  2340
H   59.077545    7.431431   97.003677
H   36.178932   31.615423   25.606405
H   19.977301   42.252609   95.867989
H   81.869370   36.243004   11.899271
H   74.211884   60.318836    2.258459
H   91.732185   98.672997   10.483530
H   30.331448   19.345108   73.443901
H   35.966911   91.041992   93.342567
H   96.106270   61.311935   52.793186
H   10.894892   49.982292   99.319908
H   82.593933   60.397480   14.349180
H   66.531403   40.982651   26.364935
H   94.415337   20.134331   92.552177
H   39.218163   97.863319   35.315342
H    8.962814   61.008942   38.290642
H    7.437731    7.064143   38.801529
H   35.934937   36.744942   86.404694
H   51.149429   80.906349   18.421646
H   81.710503   76.520065   86.642944
H   29.475037   56.119884   75.650734
H   25.417709   23.262806   93.732300
H   86.718430   47.190369   20.005630
H   54.501656   75.591148   65.400131
H    1.630145   64.746338   33.285294
H   45.891594    0.591373   53.826736
H   35.929462   57.882412   69.842934
H   60.298935   45.206707   46.401112
H   35.099678   65.663002   44.120220
H   62.051834   61.395027   46.558739
H   90.719887   32.925217   69.411919
H    8.151677   31.886404   24.247967
H   13.506094   87.860802   82.638557
H   35.183857   97.277229    8.602635
H   76.971581   59.275711   73.170731
H   22.606018   82.033997   67.216789
H   76.008255   68.304619   12.595857
H    4.235844   18.840281   92.848267
H   67.272758   16.125423   87.568916
H   46.301727   30.430819   17.548826
H   42.791462   93.120033   22.140131
H   75.327293   36.474461   97.473923
H   21.315338   16.877518   12.736740
H   31.396627   77.532227   70.493126
H   29.933847   51.990105    9.527141
H   53.677265   39.565899   56.351295
H   47.898342    7.548695   92.671486
H   60.012028   52.095123   47.918892
H   56.364384   19.475832   13.363823
H   33.430206   38.650311   51.131737
H   74.963097   66.364510   20.002323
H   43.366093   43.731895   78.089432
H   18.852247   46.604893   20.444874
H   57.420532   35.576843   66.967522
H   22.504879   69.030617   35.073395
H   54.473724   63.643002   20.261793
H   96.494095   10.072721   12.967682
H   44.596951   22.027565   78.540871
H   51.815521   55.903580   53.283035
H   74.827095   37.640026   31.839830
H    4.603818    7.647360   97.055428
H    7.309324   69.749580   31.950947
H   15.861721    6.162947   89.476501
H   32.953182   47.583107   73.025070
H    3.722467   54.523514   63.613117
H   25.200005   73.952820   13.480470
H   57.595314   25.944588   84.544411
H   99.825447   29.263220   80.037186
H   18.726158   51.364563   78.068130
H   73.528557   81.648857   13.470986
H   77.791321   65.839912   96.805756
H   47.727364   36.186470   34.080929
H   81.023132   73.864990   27.945158
H   54.419464    2.561855    1.746582
H   78.694389    1.299003   64.135399
H   74.991356   31.973242   78.785629
H   80.977928   57.545853   38.477283
H   79.412201   23.730932   32.434116
H   41.917782   97.713371   43.670086
H   73.723022   46.645412   43.786255
H   84.767281   81.513214   19.327980
H   56.674129   53.490032   19.845062
H   16.895706   59.509537   91.107765
H   65.854630   46.314575   52.773289
H   11.140443   12.398409   49.696686
H   38.391388    2.514935   20.915558
H   97.433411   95.006142    4.279878
H   23.438040   33.215866   35.123627
H   93.624542   17.948273   71.411995
H    4.243455   63.884666    9.055613
H   59.451893   13.000290    7.868110
H   19.785095   99.785599   82.878250
H   51.426090   71.492485   78.109245
H   35.422367   97.748398   99.943619
H   73.398232   55.172039   84.592506
H   16.133739   40.126991   69.857536
H   87.195969    3.327835   46.584991
H   76.864273    1.968463    2.613769
H   15.456817   36.161377   18.594582
H   97.241417   46.937115   49.039040
H   84.563217   18.598362   72.310211
