100
TIME:    1.129, STEP:  1129
H   40.972328   18.486153   98.112381
H   69.865044   65.959328   49.217190
H   99.162231   55.128658   10.083557
H   81.666107   86.134666   78.279655
H   85.058701   63.251854   35.092659
H   10.509220   99.984962   90.554161
H   93.799950   37.573391   78.742043
H   31.149124   86.274857    4.532335
H   25.875023   77.744598   29.020163
H   43.986748   32.594124   51.901993
H   95.238205   11.670161   30.998800
H   12.748371   80.281731   12.565748
H   71.445633   93.401161   12.915807
H   99.180550    1.596332   43.157986
H   94.233208   69.177612   96.501663
H   56.129776   12.985607   39.323715
H   33.296608   56.659561   76.148186
H   25.270439   39.797501   60.406052
H   62.844627   25.715998   22.843012
H   62.098640   81.838974   93.200249
H   97.280182   43.822273   26.601604
H   70.603691   45.590088   23.122746
H   70.670250   85.440132    0.047126
H   14.145233   50.222324   23.224846
H   89.204948   96.635963   44.892433
H   41.482220   93.969147   83.351532
H   64.724930   95.545303   22.369963
H   37.279297    9.137319    4.090967
H   35.720123   51.523533    3.804561
H   44.283688   62.897171   73.140953
H   60.513401   23.287180   20.072559
H   37.042820   21.320114   94.746910
H   49.883556   85.879555   99.506187
H   25.804909   70.256630   24.187971
H   52.708763   73.576363   93.477524
H   70.716980   73.173111   16.759604
H   88.084770   63.189796   97.426216
H   17.328255   38.290257    2.112745
H   99.963699   56.407173   33.917679
H   56.853539    6.489618   26.861101
H   58.085533   94.921318   68.943283
H   30.153099   62.529953   55.842411
H   20.965574   70.270218   83.021797
H    7.265474   31.691660   91.121712
H   58.722244   87.346298   52.720993
H   63.521824   84.450722   87.756233
H   48.001270   86.643829   37.270454
H   56.299709    7.007535   38.434032
H   98.034111   38.945168   99.436722
H   49.568531   47.933498    4.701996
H   43.458485   60.645943   65.320862
H   60.000038   58.977047   99.943985
H   32.299156   28.555054   37.299110
H   50.545841   88.784019   81.636612
H   50.880943   57.479839    9.986454
H   94.978867   11.345421   54.192978
H   67.824112   56.970207   63.364738
H   41.990662   70.267525   84.474564
H   79.318443   86.471146   24.809055
H   84.516281   14.566031   31.498131
H   30.919348   26.068100   26.370201
H   58.840729   17.436783   44.271896
H   50.812912   30.164623   56.104347
H   20.565264   47.935966   96.486290
H   77.135139   70.673607    0.702382
H   31.988930   86.147194   12.940741
H   96.986343   87.395081   21.570721
H    2.377912   82.105515   20.175329
H   13.170450   68.663589   89.423256
H   53.256058    4.927863   99.355774
H   86.180901   18.583864   48.606846
H   80.875565   14.056307   39.281715
H   33.379425   62.459568   32.799480
H    5.341691   77.934952   36.108772
H   16.605915   30.250132   86.983452
H   52.351139   79.931541   19.962608
H   69.461662   28.692595   11.011312
H   85.022797   76.898979   76.791199
H   15.667780   50.195164   30.277210
H   44.157303   47.467033   23.656708
H   32.975590   40.961681   47.465984
H   26.032581   51.600784   92.370804
H   89.232246   26.100561   37.431461
H   27.834806    8.771585   60.308357
H   97.355942   78.264969   38.308495
H   25.306889   50.525852   20.184624
H   42.558083   21.265434   77.378128
H   74.129837   14.904041   84.006096
H   79.112251   31.310694   18.963032
H   66.518967   62.827278   64.574333
H   70.225868   34.394749   57.304150
H   61.821522   80.417854   55.033325
H   57.722603   61.457481    6.257135
H   56.350693   81.715401    2.941826
H   37.073261   48.601257   42.029076
H   87.172333   51.147758    9.134657
H   72.987717   32.471279   72.259201
H   11.010453   25.850433   37.972374
H   54.929039   41.716969   50.479542
H    9.356155   49.704746   88.946846
