200
TIME:    0.512, STEP:   512
H   17.829206   61.572285   19.990608
H   30.388632   36.849052    0.939323
H   12.436774   81.043549   58.745659
H   27.011238   80.152962   37.386963
H   12.322249   90.623047   49.747795
H   80.769958   45.432487   57.498512
H    7.300017   55.111137   54.916134
H    8.983994    0.631938   15.417500
H   98.474739   83.428467   41.083981
H    1.286324   71.088829   85.343697
H   21.674311    0.404712    1.557124
H   31.902557   49.282913   25.702456
H   17.850079   96.034981   50.143730
H   91.547493   54.354519   55.372738
H    6.489688   74.038460   42.309341
H   21.372105   14.759274   48.455391
H   97.003067   20.457603    2.226025
H   30.103287   96.242844   38.677898
H   74.075348   19.854595   46.487923
H   90.921608   75.969322   26.926655
H   61.349358   90.336258   13.378981
H   83.973610   59.211098   60.092880
H   86.860069   60.563797   42.609718
H   14.369493   90.539040   90.733177
H   15.069057   23.643438   35.704662
H   18.435934   74.407547   97.973030
H    4.163153   64.254524   60.018143
H    0.752537   81.350014    1.446981
H   22.524708   48.262154   36.745651
H   80.758041   28.050875   89.216965
H   13.006374   62.813023   16.527363
H   26.979824   69.881332    0.299796
H   20.551155   14.838367   76.501541
H   87.424355   63.874672   43.044571
H   34.935459   78.561752   32.150120
H   24.176308   43.720230   82.595497
H   94.071350   68.558273   87.996925
H   19.460861   51.791264    2.937792
H   43.003479   36.660686   50.477715
H   87.474228   38.569958   53.071381
H   80.585243   92.517563   10.552585
H   26.877886   37.403214   31.765877
H   71.804398   81.533516   60.428257
H   36.675308   76.444588   28.476332
H   38.070587   84.593857   54.179588
H   37.232094    6.759747   45.646069
H   85.099884   12.886253    2.142785
H   83.493874   65.546455   37.869339
H   97.599533   18.430141   61.362438
H   52.383694   19.028982   94.205139
H   71.737778   67.053368   17.089130
H   10.740482   40.379620   69.389626
H   59.512314   86.640892   11.484678
H   18.358406   87.923691   85.731117
H   65.685715   70.335739   81.976601
H    1.818808   65.649254   87.554962
H    4.654231   17.774757   46.736866
H   70.380356   64.902512    0.394168
H   22.441690   79.731857   13.705113
H   36.812336   94.461830   61.966034
H   49.538597   10.069613   34.289543
H   94.824699   17.069231   51.151100
H   78.940842   30.841143   75.708405
H   30.716339   65.540398    9.740471
H   75.720810   80.134003   29.052130
H   28.069891   27.128538   37.752457
H   76.014992   17.424591   91.454750
H   95.818230   92.068336   92.656685
H   26.197565    9.528937   58.537056
H   43.671230   46.370770   50.968067
H   58.345840   81.296600   80.556976
H   24.495998   16.672266   42.860836
H   86.126602   30.365490   90.387726
H   16.726728    2.985945   68.491127
H   82.457047    5.274626   54.823288
H   60.188881    9.473813   61.100067
H   94.277924   40.076111   68.298164
H   16.480686   10.922911   38.666512
H   13.598492   41.811626   28.914165
H   64.177582   89.149979   81.362213
H   54.912411   25.504972   97.095551
H   38.596615   63.698948   79.448540
H    9.938510   16.649912   82.321342
H   15.804163   70.753883    2.716660
H   29.222244    2.200128   50.073883
H   32.330368   76.257477   22.120651
H   48.045952    3.350897    2.394908
H   73.069527    8.420828   21.701435
H   74.011063   72.719284   78.150391
H   22.081764   98.238930   51.873074
H   29.840759   37.240879   79.544647
H   82.160774   90.921936    4.302819
H   60.180897   13.794441   87.983124
H   47.830906   84.661552   76.573296
H   32.017143   53.246880   79.268272
H   58.007912   33.790657   16.272772
H   82.995293    4.871232   10.043550
H   99.417290   32.665283   51.168888
H   30.854576   67.053299   53.845177
H   71.933800    2.347195   27.316813
H   22.001860   87.946899   81.747902
H    0.686756   80.771683   64.364235
H   28.817701   27.229517   34.303768
H   34.945885   68.441681    0.963809
H   24.978174   23.898209   33.906078
H   98.191292   13.455835   31.156298
H   78.543190   33.474163   54.993362
H   63.148594   44.717796    8.223804
H   79.709038   36.656242   12.285175
H   13.104342   24.267969    6.868502
H   50.773216   93.703133    0.987223
H   96.915710   70.185242   93.609428
H   52.369858   83.431030   88.018990
H   62.302788   13.533363   67.939819
H   54.773354   93.294983   17.235580
H    2.938020   97.840279   91.205017
H   21.391712   12.272742   87.350998
H   39.391109   40.384602   28.541496
H   29.192144   67.925644   70.096542
H   77.960732   52.103573   59.489426
H   43.393440   23.566929   78.606865
H    6.552846   21.036549   56.189079
H   38.794014   10.350760   32.098034
H    0.069799   57.530815    5.953905
H   68.777458    2.217474   83.817162
H   57.687435   69.794312   20.279585
H   88.625648   50.459946   60.550125
H   69.479088   89.703270   37.299816
H   95.815010   42.637905   78.691658
H   80.928909   22.860130   71.135521
H   59.588814   75.473785   13.805996
H   71.259697   88.749130   15.741414
H   91.549568   95.828255   99.398468
H   87.583282   19.976833   53.054974
H   17.863163   96.451935   43.917984
H   55.113571    1.277764   79.674400
H   69.343033   87.257637   68.879311
H   93.538414   55.728214   78.900642
H   53.422852   48.137466   71.485756
H   43.595284   96.044701   87.899628
H   64.083603   55.069824   23.696289
H   44.716568   49.275291   52.587650
H   46.261665   61.767399   90.209808
H   45.249458   16.681784   82.631752
H   53.087215   60.746201   57.962833
H   55.906258   66.661972   16.819130
H   51.164360   95.586632   45.334324
H   35.225319   63.293816   67.264427
H   72.456757   53.435844   95.240479
H   18.132469   91.644402   79.818100
H   66.632820   65.929337   49.290791
H   45.237259   99.583549   39.628464
H   88.811615   21.668056   93.916275
H   17.100143    7.386100   69.230965
H   24.398365   61.062328   65.674187
H   71.576683   44.203342   62.429184
H   62.158428   69.040787   83.976486
H   49.913193   32.295761   16.096539
H   99.932884    0.709449   92.517586
H   60.630177   45.845673   88.679306
H   56.627762   73.358971   76.183830
H   30.833307   21.646725   33.187592
H   76.927605   22.710835   37.118954
H   21.258841   28.170200   59.561493
H   56.349815   31.317793   12.497137
H   16.600006   55.784695   60.814945
H   70.216118   93.167549   55.105183
H   23.869823   43.307991   59.260273
H   97.768883   27.285658   36.214661
H   38.885735    8.407086   87.340363
H   74.168701    8.868529   35.953247
H   36.766457   55.344170   58.293381
H   42.928375   65.766739   82.770706
H   67.876572   68.031914   80.549942
H   58.795776   92.990402   86.441994
H    9.305196   49.130089   23.547701
H   32.623493   61.418037   98.286263
H    4.140669    9.460258   68.358231
H   68.645515   15.056405   65.953568
H   73.361687   57.372826   90.222038
H   76.451874   94.936607   35.395142
H   24.713964   30.438076   79.545975
H   53.111767   89.881500   11.455399
H   57.404282   25.723721   87.196877
H   89.040421   76.536896   77.276230
H    4.954650   38.518936   85.315529
H   40.823181   99.865425    5.292013
H   77.353546   78.746040   35.044075
H   98.741371   62.386356   69.652054
H   54.559799   56.793697   69.139542
H   60.814106   22.025261   77.359077
H   45.423119   92.321045   21.159849
H   10.142226   23.995003   64.036995
H   30.351549   74.386475   38.794910
H   75.560379   42.106106   20.926544
H   75.992203   11.050880   25.839840
H   11.269294   92.976158   12.647443
H   21.004553   92.000298   39.295753
H    8.286128   12.372972   65.852272
H    5.170815   25.777485   93.969864
