100
TIME:    7.352, STEP:  7352
H   20.136488   47.807106   92.415054
H   97.433060    3.256877   41.672543
H    6.145010    2.836756   37.039616
H   82.710617   29.748844   37.174488
H   29.318712   62.052563   66.362335
H   14.007154   93.243126    6.838982
H   67.650284   57.781063   65.389130
H   42.033592   24.643566   33.157631
H   72.901680   79.428513   37.304569
H   73.950417   21.948824   95.578285
H   16.389893   62.066242   31.567976
H   75.236771   92.208557   69.605721
H   74.937050   16.978931   94.485283
H   91.054497   82.414955   16.730083
H   69.903389   13.315941   97.345734
H    5.914810   68.696167   22.760805
H   32.903084   68.247284   42.669918
H   58.286884   37.090576   44.667870
H   59.771664   86.778397   50.692661
H   94.443039   49.683407   16.890909
H   27.998611   24.302345   57.694912
H   67.223740   53.843872   93.187592
H   87.582405   34.828880   22.001123
H   35.950966   24.779512   61.051346
H   66.634590    3.108810   90.836098
H   12.942013    9.365273   99.026283
H   28.107386   36.862892   45.844509
H   12.201674   99.606224    9.789641
H   71.032951   16.123095    9.639532
H   82.901840    8.877678   67.851524
H    5.401878   81.323425   27.712166
H   29.966915   49.381756   18.652565
H   88.221931   30.574560   60.123177
H   88.740883   99.955879   62.023102
H   97.984535    3.020481   72.354263
H   11.734640   61.269043   96.312263
H   84.951309   35.290161   87.774261
H   60.118828   24.406597   41.251152
H   34.742146   21.228807   31.848503
H   70.716469   23.913443   16.474173
H   32.793900    8.449483   15.554447
H   80.627373   70.434021   55.291546
H   74.558563    7.590363   32.516361
H    9.894421   36.045555   99.575554
H   18.924618   41.819096   85.240303
H   83.223778    3.144477   13.029562
H   99.172165   24.665203   96.035728
H   56.636349   71.093201   23.477612
H   79.935799   23.557598   51.200935
H   80.096436   42.635578   69.481392
H   42.996769   59.855453   30.926781
H   62.435833   81.528000   91.423615
H   61.376637   64.638123   75.876869
H    6.439095   87.248581   56.239517
H   55.417892    2.898527   62.883121
H    2.752666    4.800133   42.347366
H   62.335285   77.407478   55.223854
H   78.610764   82.581520   24.184984
H   70.111626   49.415691   47.072456
H   73.861839   92.886749   54.502220
H   23.470533   36.669662   41.175835
H   37.981087   59.510696   62.701317
H   73.188728    5.595410   29.321747
H   47.888889   81.812531   27.532322
H   24.135536   73.653015   80.228539
H   49.702393   76.783684   80.891464
H   97.703308    2.541237   22.017015
H   72.512779   38.006645   17.670715
H   23.324280   21.518494   99.127075
H   79.340065   17.917170   86.250122
H   88.572655   95.171692   73.958992
H   67.847221    7.484204   94.945320
H   27.627413   54.651478   73.245667
H   68.359306   84.111084   66.322693
H   16.624571   39.140614   58.735264
H   99.460487   78.767723    1.233740
H   34.501667   89.466011   21.129976
H   77.390656   69.992134   20.462496
H   14.069272   31.923580   99.704796
H   38.975571    8.520934   87.539894
H   54.742439    5.342172   19.401886
H   92.985085   92.149490   71.935188
H   82.905785   30.069494   30.110458
H   55.954388   41.286007   91.925926
H   94.348404   89.009605   35.058342
H   82.085129   79.106384   52.328445
H   58.178242   68.802177   74.115059
H   74.269402   16.759161   19.349106
H    8.257604   84.824944   68.060921
H   16.322931    6.793270   87.033112
H   24.896870   70.417213   88.722580
H   22.272448   48.419785   73.609154
H   56.730839   48.116680   87.546028
H   57.807991   59.210167   22.532831
H   29.481537   91.181870   85.027985
H    1.166623    5.409987   87.708412
H   79.035301   89.596069   14.368451
H   24.086260   50.235485   31.290888
H   58.480705   68.549919   29.230221
H   95.872978   89.970016   89.498627
