100
TIME:    2.508, STEP:  2508
H   47.716217   92.025017   96.849869
H   31.505714   40.724709   36.203815
H   22.865057   54.339401   93.896675
H   81.897568   29.321367    2.690383
H   72.707123   73.784775   97.703323
H   89.127693   98.490990   27.121241
H   21.526546   30.689774   86.581718
H   22.762444    5.576499   77.918129
H   91.976509   45.159470   42.217564
H    6.304346   52.394524    5.898827
H   66.966980   67.157364   98.166534
H   60.119370   49.403671   14.406958
H   83.728203    9.969955   75.853691
H   30.899681   97.345497   48.100681
H   11.006546   46.002350   30.214552
H    0.682458   92.370148   24.855886
H   22.427979   47.855049    1.700868
H   54.739578   72.736549   12.596786
H   84.327812   83.567062   95.494629
H   24.949219   52.552807   87.088966
H   15.448349    6.537417   89.171875
H    2.824753   47.413391    5.698894
H   52.258614   74.224815   60.593613
H   86.021118   66.761230   20.807571
H   39.882805   87.266479   55.066177
H   35.159138   52.877224   54.096306
H   45.811447   38.222515   49.734913
H   20.924433   73.504677   49.673992
H   65.704788   76.637459   38.617088
H   97.161903   28.767258   82.767632
H   14.760961   46.951962   10.954540
H   24.113686   83.218346   67.085945
H   47.018147   84.985359   23.737402
H   84.069847   43.879471   66.092972
H   18.429474   69.334534   77.447624
H   90.614944   81.501396   12.018434
H   20.349178   12.687296    6.085931
H   60.328979   13.050533   99.424995
H   39.209869   26.770815    1.268773
H   26.968199   77.393105   35.358219
H   63.845501   42.238438    1.432231
H    6.216442   24.417984   20.629175
H   32.843708   78.539673   82.628624
H   19.206339   54.806084   25.953257
H   39.105183   32.938030   70.727272
H   45.730923   10.753040   93.353371
H   61.325809   61.231354   49.532600
H   56.373356   21.205538   23.758720
H   38.340546   24.737041   44.429527
H   78.485313   68.920296    8.252628
H   43.353275   27.512602   79.860794
H   27.016279   31.015152    9.415516
H   60.905579   36.550964   57.210037
H   18.614803   66.290260   42.486969
H   41.098785   78.370209   21.687086
H   96.704300    9.896162    7.248566
H   55.246914   17.180031   94.519020
H   39.305756   40.038223   48.955887
H   88.077705   44.738293   18.942339
H   93.517227   20.560873   92.277107
H   17.907114   61.936443   18.852863
H    9.899715    4.598906   81.875793
H   44.349117   36.126930   61.499680
H   15.258810   55.437393   59.051411
H   31.868248   60.535252   29.126009
H   47.274757   17.592781   94.477882
H   86.346687   35.071079   88.148026
H    7.121054   60.972473   86.099503
H   81.900871   69.577446    2.934128
H   81.195618   74.289131   96.451996
H   42.392769   24.755522   32.064754
H   67.170105   68.289429   40.245789
H   43.465729   94.251457   97.439445
H   74.997856   90.668167   54.150658
H   83.091942   32.212856   91.520981
H   84.948753   68.313225   27.173359
H   94.664886    9.169744   35.405186
H   49.810726   86.728874   52.948589
H   81.780029   46.151943   45.661438
H   76.528267   72.364166    4.854803
H   59.961788   55.228069   29.885559
H   29.501602   60.606705   77.059914
H   76.482803   49.119019   68.774506
H   22.697742   26.774385   34.351715
H   30.211193   92.006989    4.630015
H   93.567688    1.176563   15.946528
H   34.658379   21.000900   43.134491
H   96.329010    4.497986   69.663704
H    7.730264   54.530540    7.681231
H   44.597828    6.087875   13.873378
H   26.660339    8.857011   86.426102
H   63.857670   84.125298   81.311028
H   46.201786    2.782568   12.940765
H   89.635292   65.362968   95.920509
H   13.228680   25.078102   73.718132
H    1.072079   96.693733   37.907623
H   63.529068   11.609395   92.951958
H   16.073614   37.591797   15.906147
H   89.238243   47.661297   34.966835
H   94.996567   14.283262   56.129547
