100
TIME:    3.839, STEP:  3839
H   57.706207   69.965485   95.631302
H   94.480751   12.888494   20.162611
H   45.743652   50.096779   78.278709
H   82.120972   74.483147   29.733973
H   60.785477   80.470284   61.613434
H   68.493294   97.049019   58.935822
H   51.767384   20.564823   90.667732
H   18.148468   20.724583   55.710499
H   59.257988   17.189331   58.436756
H   69.931007   71.505714   58.022972
H   43.160599   20.712772   69.956810
H    9.315285   16.119608   19.664732
H   99.064240   29.442703   43.563454
H   64.996132   93.242989   49.390415
H   27.198254   27.112164   66.236885
H   47.167007   75.956047   14.370626
H   15.397729   35.890514   22.867666
H   83.176109    8.010024   66.452332
H    5.062234   39.404724   65.613998
H   89.089806   24.290823   77.709618
H   36.465012   74.033264   53.044449
H   30.429016   49.180313   92.351990
H   34.487846   63.399879   22.512131
H   62.356804   82.724457   21.955357
H   92.280060   81.707642   64.891701
H   29.053698   13.220799   29.341452
H   31.037226   82.894913   76.142677
H    8.618611   35.631241   93.667564
H   94.645752   97.396408   75.700874
H   48.197113   95.824120   88.578400
H   67.146049   66.305168    5.649483
H    8.154029   46.442787   43.868584
H   40.771511   87.603127   43.644394
H   40.308884   21.901192   10.020576
H   85.343536   68.721123   58.495316
H    6.347890   86.059174    7.435338
H   48.008736   63.943344   10.963429
H    5.320346   88.694450   93.349602
H   83.027435   97.773613   72.284706
H    1.602925   52.789490   40.078854
H   72.883423   87.909546   32.790874
H   86.593674   84.154800   83.161041
H   44.308392   86.521286   78.768211
H   34.212326   77.110046   56.090576
H   23.651186   80.423431   84.624084
H   28.559284   36.139851   98.755684
H   71.726852   33.616356   62.317398
H   56.444439   34.910416    6.113470
H   77.246750   14.504128   91.334473
H    6.392810   89.168816   15.160267
H   43.251728   99.012413   93.894623
H   91.701477    7.508395   22.038387
H   88.507256   44.268555   79.906837
H   87.791191   44.570374    1.221796
H   35.126816   95.028015   32.998821
H   98.369675    8.495916   61.938187
H   39.627323   78.773872   21.108419
H   40.196037   14.341316   14.671070
H   93.051079    0.975220   16.760628
H    5.685309   22.866140   54.420296
H    1.867288    0.042010   15.077808
H   62.661003   92.209213   21.651138
H   34.689785   45.316948   70.218712
H    6.656252   62.677711   22.910748
H   84.699287   54.230122   53.078617
H   65.509315   51.424721   73.175446
H   79.558151   81.085907   52.409527
H   15.179962   37.094315   49.729000
H   48.238419   73.940277   19.456593
H    8.164938   41.233360   93.649292
H    0.125931   34.194725   16.096432
H   57.423203   24.116379   37.695278
H   56.681671   28.413715   63.319366
H   45.701000    6.439460   75.053886
H   47.264378   34.111790   92.419838
H   16.412340   53.617500   37.613590
H   15.510916   93.807419   58.943836
H   12.343532   99.697197   26.453211
H   45.605888   42.242374   60.517799
H   11.253515   99.872993   90.188011
H   86.000076   68.997879    9.437201
H   29.369270   69.299149   65.762695
H   60.692631   71.337555   95.545776
H   14.267672   40.670845   12.784089
H   65.401886    8.752041   75.604462
H   62.940685   50.068390    8.375035
H   23.552862   24.226357    6.601686
H   17.751272   97.934807   55.818665
H   35.354843   80.423042   96.792732
H   26.919107   51.330124   61.450081
H   81.130280   80.725990   14.534463
H   62.343384   84.216362    6.676608
H   31.540760   42.706673   15.880289
H   18.281315   46.096901   85.662422
H   90.215569    5.854656    4.303800
H   11.007293   44.132881   69.159554
H   57.880493   87.993080   16.404612
H   20.958036   48.924469   94.607201
H   25.832146   53.398716   23.480202
H   77.665459   80.117592   27.916643
