100
TIME:    5.593, STEP:  5593
H   39.090248    9.115411   94.025467
H   46.009621    7.939283   30.761654
H   75.898483   76.286972   57.693157
H   82.415375    2.217815   33.591232
H   45.075058   21.061037   14.056343
H   41.289982   95.148781   32.639606
H   59.839588   39.004124   27.832964
H   80.287521   72.466812   94.662727
H   16.141319   48.549286   48.028038
H   21.998232   96.690559   26.705389
H   80.007797   91.289215    1.003808
H   42.372574    4.038927   94.813667
H   87.166031   23.370937   69.273125
H   78.149101   87.836678   82.869911
H   48.530602   70.438217   81.922424
H   76.641190   22.544937   68.773163
H   74.351295   51.903301   82.541199
H   20.670332   22.682209    5.643965
H   32.381229   12.985385   58.021511
H   41.831009   87.039833   97.130104
H   32.380165   99.415771    5.441090
H   98.586700   51.508774   42.982651
H   11.068715   49.134712   72.327850
H   99.387276    3.736788   91.688202
H   29.545704   42.607346   77.845436
H   21.050272   61.317772   64.476212
H   79.788681    9.981836   10.939304
H   60.619762   17.502022   51.649200
H   32.785652   56.532597   92.788696
H   15.454018   52.413048   28.015678
H   36.174835   23.590946   66.878578
H   18.902500   97.985336   81.492043
H   64.321892   59.271721    1.658565
H   14.418826   61.157646   36.126167
H   41.745117   36.132278   65.301407
H   58.827442   23.496586    1.842287
H   16.240822   99.706665   49.171795
H   32.823406   56.601429   17.124599
H    8.988816   59.554741    2.309395
H   36.395496   88.585304   78.080589
H   53.009521   48.091087   74.114357
H   28.953384   62.876381   65.558662
H   59.416622   97.039505    5.462841
H   22.212147    6.521238   27.590151
H   71.503593   11.221921   34.718975
H    5.928515   69.594742    5.883357
H   85.429977   29.004871   79.153236
H   56.538113   52.976059   14.641028
H   28.519218   69.236694   21.366459
H   43.179813   15.860388   92.482956
H   43.117908   29.675779   12.386252
H   76.942039   44.751026    6.890931
H   24.887371   54.438843   78.037041
H   47.169113   15.946372   78.620384
H   95.471550   48.749157   47.919704
H    0.561792    6.650430    2.227890
H   50.822823   28.163307   87.928215
H    9.589499   48.698021   69.492416
H   31.384733   75.086952   82.105873
H   89.938812   57.685711    4.532356
H   12.511091   18.471962   78.321190
H    0.411374   75.883224   42.289352
H   53.770008   25.627008   49.941650
H   27.100468   72.230576   75.291306
H   54.319778   14.140133   16.420782
H   57.759117   64.228477   76.885139
H   38.832031   41.726597   37.092972
H   94.018852   37.407505   33.580341
H   35.656742   47.909019    9.448548
H   43.698524   29.453381   89.955872
H   44.430214   14.853041   95.055397
H   12.799059   65.904160   66.116318
H   42.317673   41.652931   18.342606
H    7.087360   95.438377   70.836540
H   31.832708   36.614216   25.385670
H   57.883026   66.033012   19.591875
H   74.763695   41.782169   89.963219
H   94.749634   85.008125   23.319780
H   29.717739   37.090321   80.084602
H   25.237770    4.341718   39.079224
H   20.318148   87.143814   14.269742
H   60.980774   80.742264   19.086370
H   71.645515    0.654053   62.593670
H   34.939537   90.763962   52.582195
H   79.996223   99.038567    5.573807
H   22.567318   14.493533   30.178238
H   40.698555   96.696114   90.239273
H   45.979820   57.516956   37.587029
H   71.753769   82.763191   82.447273
H   71.843018   79.165085   24.154169
H   52.911278   75.436600   51.575726
H   92.124260   16.126509   40.095306
H   43.975479   95.336647   51.519855
H   87.809669   52.493969    3.926571
H   59.892052   48.743351   44.606632
H   55.880463   74.870331   78.563110
H   18.656397   88.651634   15.530837
H   27.394758   63.858734   66.531853
H   42.275360   60.959522   76.565117
H   86.613876   35.109280   58.950100
