100
TIME:    6.088, STEP:  6088
H    5.616102   63.721550   93.572281
H   32.338509   34.763836   61.974766
H   84.410828   11.899234   51.881046
H   82.498459   81.824249    6.458163
H   40.641388   60.737473    0.635476
H   33.612255   94.612511   81.661644
H   33.898464   72.429420   66.542610
H   41.381500   15.291820   49.214489
H    3.973274    0.956913   16.868639
H    8.475512    3.798311   46.087559
H   33.964096   11.206364   53.321976
H   23.478493   28.850407   59.578453
H   55.578964   93.436516   20.087334
H   53.639290   86.310951   20.539257
H   54.550423   26.222614   58.129223
H   56.738770   79.250221   27.684097
H   34.546455   84.644600   27.603003
H   31.256002   98.597168   88.483925
H   40.089169   33.752632   84.101501
H   28.496010   76.525917   30.831934
H    3.006165   50.138279   92.004906
H   46.042831   52.165894    0.828862
H    4.459061   45.108910   58.165787
H   53.395573    9.658419   54.926327
H   11.842902    3.350105   81.501137
H   18.793783   46.683640   17.929619
H   37.103729   89.405960   20.761625
H   18.854298   40.606956   68.012070
H   43.548820    1.443295   69.389191
H   34.433338   40.161919   67.367142
H   55.658058   67.977440   27.715752
H   50.157230   84.306671   35.667381
H   99.187004   23.055071   46.252075
H   35.334877   15.793729   15.273573
H   29.440723   98.712990   95.445007
H    1.857397   62.267067    0.285549
H   63.716461   81.579224   88.176003
H   12.365211   47.541485   52.053913
H   88.095581   48.768913   54.339729
H   89.771881   42.245258   17.025206
H   19.179901   65.074471   85.776344
H   87.150421   65.477234   90.762871
H   63.680347    0.007876   41.216599
H   90.604691   14.829733   75.987755
H   28.567181   91.691269   77.076767
H   99.540672   79.036118    7.894370
H   89.297165   55.924332   83.904137
H   56.564548   58.074402   45.268848
H   42.987183   28.241760    1.620107
H   53.561550   23.394606   57.860214
H   43.083561   81.886200   17.604210
H    0.998590   98.818176   74.396767
H   35.155811   57.309021   49.288006
H   35.707283    7.869275    0.463915
H   56.059471   92.127945   52.130558
H    1.178356    6.129738   85.376907
H   82.204369   13.880254   35.006996
H   72.730621    1.950728   56.742783
H   70.423553   96.001488   44.106224
H   57.272430   95.731308   90.453392
H   43.736683   95.452286   39.727222
H   82.842903   71.275833   19.890633
H   87.374901   91.848549   15.998016
H   61.092926   74.927032   61.853733
H   73.967255   74.606430   62.517994
H   27.350624   39.620476    6.153596
H   99.116379   58.838146   60.990982
H   59.825966   65.716530   57.244205
H   60.328945   12.341469   78.404419
H   53.725266   54.351982   88.913544
H   28.711815   81.173355   89.118660
H   71.982925   49.476166    2.356231
H   10.041988   17.169556    5.649620
H   96.190605   64.108116   41.424767
H   55.696743   37.320431   62.909805
H   69.584755   97.756035   86.284180
H   19.705540   98.878273   98.717262
H   18.005642   52.641762   50.658226
H   53.453358   35.636349   85.605919
H    0.964287   77.377296   96.434624
H   30.004999   92.264816   43.854160
H   98.134171   83.952332   77.679680
H    2.953430    8.931628    9.733280
H   68.993248   33.122826    7.372938
H   55.894279   68.078407   57.589050
H   11.173466   32.675804   64.552399
H   73.758476   60.705589   13.842840
H   53.940788   17.905394   32.454697
H   82.025986   55.201927   78.398811
H   28.077421   58.800961   41.848145
H   73.168694    2.166851   62.029217
H   28.749247   53.354935   49.525352
H   75.706055   10.188581   89.798965
H   35.649220   82.525093   37.303436
H   51.334389    4.402913   55.981602
H   96.765396   55.322906   52.995865
H   79.365685   17.058245   87.062683
H   26.526079   87.692795   56.663216
H   18.694580   63.093273   35.103516
H   17.360880   22.407314   11.263694
