100
TIME:    7.598, STEP:  7598
H    3.500847   25.247879   92.189835
H   90.638931   16.587643   57.184551
H   10.373613   20.534344   34.151173
H   82.751907   19.613018   23.690037
H   27.114374   81.770546   59.692078
H   10.192025   92.976616   31.201187
H   54.757801   74.391724   84.626648
H   22.698479   45.924953   10.570083
H   66.854530   55.776688   21.819454
H   67.231361   25.481020    5.210601
H   93.507584   71.964645    7.872046
H   65.848862    4.539175   52.094887
H   59.250496    2.089592   70.037682
H   78.873863   81.656715   35.451473
H   72.891304   91.342026   85.514191
H   96.023438   47.180176    2.340194
H   13.121216   84.519409   65.064270
H   63.547642   25.120148   36.141426
H   63.602276   97.097214   63.652180
H   87.814072   44.460186   33.639748
H   13.400620   99.811646   51.019024
H   90.807999   54.170441   72.238403
H   84.297951   32.828178   14.962138
H   13.093817   27.722383   42.780396
H   57.836006   83.600723   92.652870
H   11.782131    2.114136   75.877449
H    6.894503   26.636534   50.726147
H   91.444756   11.088645   17.921370
H   76.381920   38.441700   98.011314
H   92.334793    2.788769   87.408104
H   15.083980    3.383505    8.249428
H   45.499569   42.585751   95.879173
H    5.549280   12.576689   82.284798
H   99.134773   77.411385   51.659241
H   91.862312   84.394829   87.320114
H   33.118458   80.536591   95.539009
H    8.546411   26.280775    7.158019
H   49.952034   19.904079   58.609962
H   24.357639   15.869516    8.009933
H   47.546448    0.883479   35.829178
H   15.982141   16.889593   21.350065
H   59.895897   71.398712   67.849998
H   76.675629    9.066021   50.284321
H   94.186325   40.174583   23.627850
H   97.585884   32.114002    6.291119
H   80.048180    7.835829   14.028975
H    1.094703   38.043770   98.396782
H   56.651363   73.626923   38.698711
H   87.127815    3.184546   41.386986
H   85.261475   46.379856   52.280830
H   42.979877   36.106033   33.520172
H   74.391251   58.701542   75.275360
H   66.478828   66.064514   61.590431
H    0.742912   83.235916   67.095108
H   35.831284   24.457031   64.974915
H    3.059059    4.541365   33.972946
H   77.931549   70.309303   78.620430
H   60.292892   59.350105   17.847864
H   89.511330   59.811459   28.187592
H   57.627991   11.795033   47.505394
H   38.988689   25.229820   21.996498
H   29.250069   57.220963   51.569832
H   89.888771   88.808868   12.452789
H   64.782158   83.152588   20.852680
H   33.899933   54.005390    3.137264
H   34.590149   64.554253   95.436905
H   77.966553   11.045778   33.894390
H   55.519951   52.075371   29.430939
H   35.585617    3.842500   83.699524
H   84.336189   30.272348   85.728363
H   80.761284   78.434113   71.008614
H   47.590229   99.315819   12.976983
H   11.587076   42.483982   66.939514
H   62.943142   68.540894   51.705933
H   28.473944   39.502842   77.387207
H    5.276323   94.533104   84.680183
H   56.843464   68.175240   25.492670
H   88.948181   53.906887   34.048878
H   25.865232   31.201000    2.450018
H   26.911697   95.119926   66.346718
H   59.558388    7.887155   34.104980
H   11.444825   93.744797   51.355015
H   98.464714   34.183506   53.538940
H   72.878761   62.336544   69.456505
H   82.370468   73.619591   11.212050
H   76.424606   88.141449   69.411362
H   74.608025   50.915977   85.845253
H   78.225761   97.074158   16.798492
H   13.363523   71.127831   66.048958
H   94.573181   96.672134   95.827942
H   34.964191   83.701424   93.917648
H   40.473957   66.921585   78.297478
H   72.499969   55.498257    6.569583
H   81.583199   74.134727   39.120205
H   25.227699   69.147873   90.681000
H   21.485275   95.695862   75.002266
H   59.508751    3.713470    0.220428
H   23.611422   62.406734   26.352007
H   46.761772   69.612206    8.624493
H   11.153082   83.656357   65.801758
