100
TIME:    3.395, STEP:  3395
H   87.732574   10.682507   96.037796
H    6.831648   88.816223   92.155624
H   38.111725   18.153847   83.488609
H   82.046448   92.775383   54.072651
H   64.762344   44.881725   73.652435
H   75.376595   97.530037   14.963957
H   75.037392   90.583900   55.946358
H   53.045990   82.312424   96.475777
H   70.172356   59.877991   86.383904
H   82.064857   65.130531   40.635185
H   84.460403    2.847870   12.726244
H   26.262703   93.864655   51.268990
H   27.306801   56.305191   87.693596
H   86.980690   94.611519   15.600590
H   21.796963   66.772232   87.577827
H   65.018875   14.790104   51.226906
H   51.101479    6.524427   82.448593
H   73.691246   29.601952   81.844910
H   98.146584   20.777132   42.223415
H    1.053978   33.719486   47.480003
H   62.812607   18.234070   65.093918
H   87.862305   48.590897   30.162643
H   40.415886   67.010902   35.216339
H    3.609223   77.399384   54.932194
H    8.159955   16.918442   61.612648
H   31.091249   26.450312   70.956963
H   69.325073    1.349912   67.335304
H   46.081326   14.906815   78.993126
H   84.991516   57.112839   96.689522
H   31.171867    6.813516   53.281158
H   49.670795   26.492025   40.777351
H   80.119637   58.708748   84.971916
H    9.496218   20.087833    3.645367
H   21.548237   62.591255   28.724388
H   96.379852    2.284047   31.460068
H   67.737984   51.180729    8.968003
H    5.424057   80.203110   75.978081
H   23.670662   96.817558   62.015896
H    1.767076    7.446867   15.311571
H   43.422230   94.354431    5.145372
H    3.228069   72.672791   22.330427
H   26.497917   64.229813   62.301117
H   40.483959   83.858749   46.697651
H   62.565292   69.671204   12.679400
H   62.163486   97.943329   46.630428
H   34.287464   27.671223   96.953560
H   68.258102    9.469026   58.052597
H   56.420727   30.337973   78.641304
H   64.266037   51.274910    9.045320
H   97.081779   82.414238   46.213032
H   43.285603   41.878464   89.213165
H   70.123413   48.708961   51.187405
H   79.300163   41.694092    5.692516
H   98.075493   51.816132   81.628876
H   70.478256   56.113663   29.223059
H   97.814133    8.963385   77.052994
H   11.480853   91.585213   78.880150
H   73.257561   56.271866   26.108700
H   58.032188   82.215454   50.847790
H   34.983673   88.738693   67.048714
H   73.859779   20.689564   49.694195
H   78.419426   96.341904   41.742111
H    4.546399   75.614311    0.665127
H   76.168755   60.262459   34.966686
H   67.077766   89.690895   11.730557
H   92.785072   73.497353   46.922699
H   15.181244   65.733978   30.973654
H   45.849968   11.700629   28.503233
H   26.108200    5.843269   47.304829
H   99.169495   18.900888   94.584229
H   14.225349   64.404015   21.423199
H   94.034164   38.851791    5.187304
H   85.630829   50.374561   74.701408
H   55.477184   34.536850    1.435363
H   25.858587   33.478336   58.762119
H    5.915359   25.159929   67.487915
H   75.199532   32.290314   51.091724
H   91.483597   28.729422    1.931852
H   24.315756   43.546543   55.561958
H   33.028236   24.054333   28.438828
H   77.314651   64.404495   82.900238
H   96.054474   66.399490    2.889279
H   32.600498   63.925812   53.256840
H   83.720428    2.676181   53.335335
H   87.020599   36.525532   18.645119
H   73.157593   33.757812   77.542252
H   93.899086   56.508766   85.429947
H   10.605444   33.482315   60.435760
H   26.139900    5.144451    0.424223
H   66.175873   69.597610   45.579872
H   62.959991   56.750637    5.157998
H   29.488623   50.828308   98.215675
H    3.080712   29.383825   81.545006
H   75.367897   19.164085   55.725067
H   97.891533   45.626698   94.101158
H   74.334656   61.666328   92.092598
H   93.123535   62.512676   41.940254
H   19.328672   45.144073    1.713480
H   46.983391   51.484806   60.671028
H   50.086544   91.512978   70.689301
