100
TIME:    9.275, STEP:  9275
H   90.091949   71.459938   90.654495
H   44.322861    7.461729   62.924847
H   39.199612   41.184151   14.465895
H   83.033386   50.520927   31.767817
H   12.087240   16.189133   14.222820
H   84.189819   91.159798   97.279938
H   66.865700   87.630196   15.770260
H   90.889587   91.007584   56.594864
H   25.630669   94.538422   16.258627
H   21.425592   49.560261   70.874489
H   37.517120   39.440689   46.332832
H    1.838372   88.598564   32.723869
H   52.313721    0.585792    3.383937
H   95.839447   76.487740   63.072926
H   93.260139   41.544106    4.867018
H   28.596127    0.503411   63.134827
H   78.266640   95.440651   17.728193
H   99.406906   43.517342   78.008377
H   89.728439   67.452805   52.003490
H   42.629971    8.848948   47.817711
H   13.884995   32.861839    5.504702
H   51.583630   56.396683   29.426331
H   61.907585   19.195257   66.981781
H   57.277386   47.784149   18.231722
H   97.858017   50.607292    5.035533
H    3.873349   52.676498   18.062834
H   62.286385   56.927792   83.996933
H   49.943626   89.365356   73.356133
H   12.847087   90.592796   18.737698
H   56.637489   61.283218   20.724365
H   81.085869   53.762348   75.570618
H   51.386433   96.255020   40.630852
H   23.675362   89.879623   33.362206
H   69.992859   23.724182   81.010796
H   50.126671   57.422340   89.351028
H   78.897522   11.890172   90.267677
H   69.391418   64.864510   39.298969
H   80.638435   89.216148   76.951653
H   53.572781   79.331200   45.495758
H   89.592102   43.889099   67.773392
H    1.371461   74.428757   60.859463
H   18.567551   77.975082   53.465038
H   91.107819   19.126686   71.414818
H   87.107704   68.329933   87.594307
H   52.117760   65.960213   49.799961
H   58.403206   39.817242   20.842043
H   14.205260   29.245008   14.500864
H   56.753719   90.899490   42.461597
H   36.147133   64.293617   74.491791
H   20.465933   71.908836   35.024632
H   42.925999   74.207466   51.109283
H   55.894222    3.087460   65.190041
H    1.254594   75.788330   64.196640
H   61.899773   55.877487   41.095711
H    2.305141   71.422226   79.227982
H    5.147760    2.777324   76.883896
H   84.246552   21.920525   38.117210
H   35.419861    0.977445   74.652122
H   21.778355   30.671072   99.443214
H   46.963787   40.695911   99.807533
H   44.776577   47.240055   91.246498
H   69.730034   41.611679   75.691841
H    3.739913   74.373558   97.455872
H   79.938049   92.287857   75.324860
H    0.462722   20.064220   59.309101
H   31.570866   81.185936   94.594749
H   43.418198   69.020782   14.859009
H   39.678162   47.984932    9.601242
H   19.166048   83.343994   78.521454
H   18.395416   14.504522   82.171494
H   27.502369   64.328789   50.895668
H    9.493890   43.634178   35.899685
H    2.244524   59.529400   23.937962
H   26.031025   62.403858   52.064339
H    9.257379   41.972179    4.538425
H   44.925705    2.012820   71.838547
H    9.150496   23.025318   55.238472
H   67.728401   44.258064   26.673332
H    6.284527   26.275120   21.166048
H   44.670280    3.765612   21.871574
H   92.389061   25.236490   34.337532
H   37.284599    4.624871   11.057760
H    4.537478   62.229038   13.246686
H   88.254189    5.840811   16.289898
H    0.716003   68.712082   48.646378
H   37.827732   49.741158   85.867264
H   86.611122   28.984108   65.810966
H    5.196157   62.881203   99.411148
H   48.167973   77.755287   52.333260
H   46.304577   27.677483   55.773804
H    3.593992   74.252350   29.333153
H   64.554977   93.048416   10.254327
H   79.998947    5.809797   36.254570
H   43.596474   75.870895   52.289425
H   96.230225   18.931293   29.214491
H   59.998566   29.471804   88.382950
H   26.396259   99.952187    3.774054
H   20.374414   45.386921   92.681908
H   66.873436   76.853889   68.159950
H   15.318110   40.622631    4.249191
