100
TIME:    9.461, STEP:  9461
H   77.513336   54.402748   90.484207
H   39.185837   17.541073   74.652153
H   42.396770   54.565956   12.282305
H   83.064606   42.857964   21.572527
H   10.420546   31.097855    9.179810
H   81.306274   90.958290   15.700053
H   57.117710    0.188956   30.315701
H   76.270355    7.099282   39.516388
H   21.058434   76.655334    4.550559
H   16.344622   52.230946   78.157143
H   20.215851   46.924850   28.415831
H   94.739830   97.921837   19.484642
H   40.453156   89.326973   84.899323
H   86.629700   75.914436   77.226799
H   95.519295   24.929665   95.921898
H   21.116932   84.235214   47.695374
H   63.309669    7.743211   34.660507
H    3.384819   34.466530   71.560135
H   92.626175   75.254837   61.802151
H   37.619244    4.898973   60.481468
H    2.847143   14.345074    0.455897
H   69.415634   56.643600   13.586700
H   59.424217   17.683241   61.660278
H   39.994564   50.009247    4.417559
H   91.205429   35.856087    6.408481
H    2.995922   47.193222    0.559286
H   46.246666   49.195293   87.686508
H   34.250160   98.047211   79.503532
H   16.891705    7.468173    9.945866
H   63.769722   56.679764   35.510506
H   88.405418   70.441193   60.854889
H   63.130634   91.115158   23.411888
H   36.777611   76.270767   50.118553
H   77.851654    6.678525   73.174706
H   45.497673   43.339516    0.666734
H   95.066376   26.459028   89.683022
H   87.231934   58.052986   53.955097
H   72.949928   85.813225   90.078026
H   45.721081   75.278343   27.470943
H   72.072296   26.475723   82.406815
H   88.659515   80.811722   65.241539
H    2.892235   78.704483   62.960018
H   92.708527   20.242783   84.850548
H   75.232948   71.451881    5.780643
H   35.984383   58.622593   65.717484
H   56.003563   43.364910   21.597696
H   15.659450   39.361347   16.287058
H   56.765072   92.815231   53.970234
H   41.583580   48.889614   67.072906
H   24.369787   74.741295   22.019424
H   43.961918   56.329445   51.458374
H   64.933685   85.828613   52.980385
H    5.112629   76.866821   53.393410
H   57.592903   52.842102   49.303596
H   87.495674   87.721634   80.808823
H    5.379423    2.581670   70.552017
H   96.039001   16.553612   55.807304
H   21.570299   83.412193   69.861351
H   36.448177   38.531166   85.164558
H   34.690273   54.993015   94.517250
H   56.510845   38.590839   76.746468
H   63.128532   39.880417   67.276772
H   16.367542   61.681419   84.701294
H   92.709656   93.301071   70.275818
H    7.845454    5.208037   76.630241
H   20.145245   71.939293    5.592675
H   28.495117   75.451996   23.839577
H   26.829926   58.622261   18.493118
H   28.436815   69.979218   66.856720
H   22.172974   23.846300   81.776993
H   21.595501   51.672161   48.664894
H   94.177116   37.458397   49.532665
H   90.117142   50.329586   19.168476
H   21.937016   50.632694   41.012642
H   18.216661   42.246059   18.640829
H   49.323395   13.933711   59.322906
H   26.043640    6.926011   58.537804
H   76.467018   32.096657   36.945961
H   15.203687   25.728779   23.242144
H   35.548515   93.633278    5.847667
H   96.030388   27.160746   45.454506
H   51.241127    5.832320   95.496849
H   16.302309   65.339638   30.960903
H    1.051278   21.757553   99.301933
H   91.659515   57.076576   30.615763
H   33.546406   56.573967   98.783615
H   99.033638   15.460382   74.680138
H    8.187363   47.998024   97.484055
H   52.027836   67.398933   50.812019
H   29.859098   20.024452   62.422134
H   11.206219   84.296509   33.261131
H   78.317093    7.037335   13.797738
H   91.921951   11.390989   50.638237
H   60.523109   87.075851   66.443199
H   93.014618    2.270084   33.488258
H   75.361389   22.127420   78.775864
H   11.632886   10.626058   93.076996
H   20.015390   54.589573   88.946922
H   58.012779   77.657082   52.580387
H   26.870758   35.850307   86.331772
