100
TIME:    2.017, STEP:  2017
H   80.921051   37.052078   97.299393
H   45.163750   14.102915    5.231945
H   14.425245   19.014999   99.658073
H   81.815155   49.550194   29.604137
H   77.104965   34.428959   11.015945
H   96.739632   99.022926   78.496391
H   47.258808   97.534264   48.184883
H   61.354073   63.096973   22.999466
H    4.046288   92.366974   73.124977
H   19.720762   45.344490   86.673149
H   12.638596   47.400791   45.461597
H   78.857803   24.792238   49.356499
H   14.961389   39.676186   24.655807
H   55.211433   98.858894   10.734005
H    5.033729   89.860901   53.818161
H   20.425781   35.315010   65.613052
H   61.903671   15.384438   56.996391
H   44.246941   96.613762   29.620632
H   76.678413   62.971184   69.624527
H   38.176460   62.978016   53.659370
H   44.584991   55.419384    2.499889
H   55.750980   46.762146   47.511559
H   58.814171   78.218086   74.641235
H   31.640388   60.872471   57.275200
H   57.444206   26.207718   51.443764
H   37.410503   67.506378    0.119248
H   88.150719   58.634647   39.991482
H   62.352310   50.586452   33.442951
H   55.028595   32.089638   61.827507
H   78.334343   40.919388   43.733974
H   95.444801    2.919861   49.805538
H   93.111908   96.786476   12.540245
H   12.431990   20.908821   79.504242
H   63.324318   88.876816   86.778564
H   30.635921    6.450389   47.548851
H   47.925152   42.930195   13.706021
H   73.254944   30.670126   67.397034
H   80.624306   22.037266   64.774193
H   60.045303   37.450996   48.807701
H   73.213921   23.358206   96.727249
H   97.402443   25.391794   89.864182
H   50.344727    2.380533   97.562256
H   28.614439   75.595291   47.162964
H   50.559868   46.576050   77.945114
H   81.695381   52.308765   28.710588
H   52.065464    1.387966   91.360481
H   57.377735   34.546844   44.858345
H   56.347134   16.150267   93.378487
H   23.989492   65.400352   64.017532
H   68.191216   61.449429   42.592510
H   43.390736   74.915077   74.683777
H    3.155924   76.577072   41.650127
H   50.720116   33.703979   85.725731
H   29.984013   74.299278   20.820883
H   80.187088   35.325794   17.521498
H   96.089951   10.412178   23.963364
H   24.121126   31.347527   47.820976
H   75.867035   86.406616   61.602493
H   49.352638   23.992041   56.638016
H   25.917782   82.821304    6.241950
H   86.934311   84.771919   57.133572
H   27.324387    9.170002    4.090371
H   11.044180   69.608971   95.184006
H   81.543579   52.766472   72.381187
H   12.379512   99.749054   83.400742
H   77.437813   42.001930   65.446129
H   25.741171   18.096270   64.443130
H   41.037880   32.892212   62.626865
H   57.430779    4.857559   33.729874
H   71.246155   49.593102   97.485901
H   57.983757   58.163582   37.956699
H    7.656701   84.584671    4.296508
H   75.479324   18.537876   10.029034
H   85.801414   21.739435   83.332253
H   59.417740   31.513651   54.300396
H   73.343544   36.843315   60.209896
H   50.085930   51.727417   26.720743
H   26.742657   18.833563   25.831059
H   58.234489   47.593601   40.181526
H    0.607776   99.103348   47.154793
H   50.353214   50.148449    0.540545
H   92.660522   57.400101   18.117239
H   45.418461   40.922699   22.009037
H   88.921333   84.758888   79.199219
H   54.118515   22.719284   52.226883
H    4.867138   83.143028   81.849785
H    1.865591   56.700592   19.721785
H   88.424881   43.808578   74.773293
H   97.539986   81.869087   11.697952
H   88.008530   26.290230   96.321526
H    6.566586   82.343323   76.057083
H   27.525129   47.202694   71.953438
H   14.698681   88.068649   74.955673
H   42.178829   35.578434   62.813210
H   21.719063   69.059845   62.435081
H   60.517517   16.082403   63.268265
H    2.502727   83.432091   21.189987
H   14.270875   33.411224   23.763439
H   12.627966   45.544788   76.095627
H   64.503860   26.894409    3.419553
