100
TIME:    9.291, STEP:  9291
H   89.009918   69.992653   90.639847
H   43.880966    8.328773   63.933758
H   39.474636   42.335274   14.278059
H   83.036072   49.861748   30.890802
H   11.943869   17.471603   13.789013
H   83.941772   91.142464   98.864410
H   66.027077   88.710518   17.021481
H   89.632019   92.391861   55.125748
H   25.237358   93.000092   15.251486
H   20.988520   49.789997   71.500954
H   36.028839   40.084488   44.791573
H    1.227658   89.400566   31.584976
H   51.293457   99.617348    1.793918
H   95.047211   76.438423   64.290550
H   93.454475   40.114906    4.097594
H   27.952755   99.103989   61.806702
H   76.980019   96.499001   19.184736
H   99.749191   42.738777   77.453690
H   89.977707   68.123947   52.846386
H   42.198940    8.509165   48.907066
H   12.935501   31.268972    5.070391
H   53.117565   56.417923   28.063782
H   61.693962   19.065191   66.524017
H   55.790691   47.975555   17.043428
H   97.285751   49.338371    5.153636
H    3.797871   52.204819   16.557158
H   60.906624   56.262630   84.314316
H   48.593651   90.112183   73.884941
H   13.195018   92.044456   17.981411
H   57.251015   60.887222   21.996277
H   81.715508   55.197041   74.304749
H   52.396687   95.812881   39.149651
H   24.802437   88.708969   34.803612
H   70.668884   22.257874   80.336723
H   49.728477   56.210915   90.324417
H   80.288391   13.143407   90.217384
H   70.926086   64.278572   40.559711
H   79.977058   88.923424   78.080803
H   52.897366   78.982567   43.945221
H   88.085022   42.391174   69.032181
H    0.278001   74.977829   61.236416
H   17.219162   78.037827   54.281811
H   91.245514   19.222694   72.570580
H   86.086220   68.598488   89.158760
H   50.729942   65.329109   51.169224
H   58.196785   40.122417   20.907045
H   14.330352   30.115187   14.654520
H   56.754696   91.064285   43.451588
H   36.614784   62.968517   73.853607
H   20.801748   72.152489   33.905857
H   43.015110   72.669624   51.139313
H   56.671810    1.602771   64.139748
H    1.586469   75.881104   63.267441
H   61.529289   55.616379   41.801765
H    1.031170   72.824326   79.363968
H    5.167688    2.760493   76.339218
H   85.260956   21.458855   39.638939
H   34.228455   99.466423   74.240013
H   23.040257   31.347158   98.214943
H   45.908001   41.925770   99.352455
H   45.785976   46.496037   89.999184
H   69.162163   41.462753   74.967964
H    4.826169   73.281761   96.358704
H   81.036682   92.375015   74.890533
H    1.097797   18.786266   60.799091
H   30.588017   80.390526   95.540794
H   42.134506   69.574005   15.631531
H   38.572937   48.899971   10.366135
H   19.963533   82.194336   77.518036
H   18.720367   15.308142   82.137558
H   26.994251   63.240078   50.703773
H    8.176354   43.102928   37.072414
H    1.201296   58.738018   23.527683
H   25.678852   61.391285   51.113655
H   10.028069   41.995739    5.751529
H   45.304001    3.038280   70.761887
H   10.603652   21.640430   55.522285
H   68.480110   43.211922   27.556999
H    7.051754   26.228123   21.344637
H   43.885612    2.893984   20.493156
H   92.702293   25.402018   35.293831
H   38.485161    4.728738    9.719198
H    5.549518   62.496616   14.770490
H   89.355019    7.209982   14.828569
H   99.936951   67.711105   47.095352
H   37.459446   50.328926   86.978348
H   87.679726   27.820778   66.573906
H    5.453466   61.600929   99.245377
H   48.500004   76.864418   52.202400
H   44.889904   27.019157   56.345703
H    4.248803   75.116364   29.671043
H   65.738815   94.251785   10.559136
H   81.024582    6.289900   37.491875
H   45.052528   76.834763   53.506954
H   95.953613   17.498066   29.582106
H   61.320099   28.840029   87.556534
H   25.126301    0.870371    2.853857
H   20.343531   46.178547   92.360619
H   66.111229   76.922981   66.819862
H   16.311905   40.212109    2.707834
