100
TIME:    0.044, STEP:    44
H   14.347058   17.986176   99.105728
H    0.046245    7.130355   80.776031
H   80.520416   77.069420   22.823235
H   81.483994   30.838140   37.751518
H   94.776947   76.284317   64.512291
H   27.334038    1.165763   83.103111
H   50.663586   64.310143   93.893341
H   16.427984   92.408905    4.153471
H   52.546394   82.062912   97.316841
H   73.638161   17.019112    9.411570
H   96.162262   68.012955   35.511345
H   54.162670   25.895973   89.797447
H   40.463402   59.045334   20.755905
H   52.903461    4.941605   60.589630
H   81.038246   66.090805   48.658184
H   99.752594    7.889983   29.387951
H   20.528376   84.906898   77.360832
H    2.085082   92.560791   98.020798
H   45.949448   80.199646   65.679077
H   91.458351    4.609850   19.189783
H   61.665527   51.837685   56.046829
H   66.566811   44.158012   15.508833
H   85.156563   94.264366   31.092300
H   14.953495   37.209476    3.806365
H   28.008921   82.683205   36.883133
H   46.451649   26.303978   85.046013
H   58.285435   40.648380    0.839507
H   28.827858   58.492947   68.230728
H   12.127788   53.083858   55.092194
H    2.681251   89.750656   86.886772
H   17.832582   25.987925    5.930222
H   68.535553   51.294365   95.190804
H   73.457947   65.262978    1.760822
H   79.961220   69.690369   69.897789
H   79.678139   55.594131   27.407967
H   76.380730   87.942375   20.492933
H   84.020668    2.922234   11.931183
H   62.169601   58.148922   25.546579
H   48.743153   79.568718   37.909729
H   59.048321    8.063700   41.495979
H   32.234638   57.688755   43.374470
H   27.666702   13.831202    4.867599
H   11.620803   63.763790    4.651786
H   76.549973   13.509267   85.033463
H   52.838158   30.155910   59.872498
H   77.389488   64.031303   83.490837
H   36.544666   28.114048   27.999212
H   56.241764   95.834824   71.300415
H   66.313225   28.805080   42.719376
H   26.812605   31.419102   80.587296
H   43.535198   65.397118   53.891338
H    7.271798   59.656868   71.174332
H    9.792137   22.263855    0.313965
H   75.665405    6.484442   33.757282
H   37.256950   62.363018    0.779548
H   93.621292   12.486195   91.128937
H   99.042046   88.277199   60.172218
H   22.783754   72.731224   12.421659
H   93.747749   40.628174    8.105159
H   56.119980   31.169790   62.347603
H   62.476334   76.523911   10.965770
H   97.349487   27.535812   93.363129
H   77.218086    4.152714   30.539520
H   46.061005   42.033829   25.946325
H   34.067787   57.330830   99.658455
H   98.642525   40.085804   48.787487
H   84.038170   49.882786   69.186630
H   77.326332   20.053631   68.306053
H   59.096870   46.624763   57.474072
H   31.278114   50.357452    1.638240
H   20.635748   92.410454   61.619694
H   70.338219   50.065254   59.844120
H    4.122485   16.130695   60.621479
H   29.222488   46.595852    0.593565
H   64.291428   28.706305    4.733171
H   26.697950   10.392149   92.969315
H   70.950623   22.730545   91.810242
H   34.047531   47.842976   16.869946
H   63.663666   53.370770   18.179070
H   97.367599    6.557445   17.130396
H   11.743210   29.736025   82.618530
H   44.625645   44.514908   83.101257
H   20.579952    7.991755   34.090546
H   53.197380   15.926731   59.411293
H   50.188782   46.133591   43.486900
H   50.286900   10.664401   44.840679
H   70.093376    0.153756   25.641293
H   56.663483    1.771409   95.280586
H   56.596382   91.722710   27.841072
H   62.444557    7.476748   25.784792
H   25.823244   75.806549   34.390942
H   81.542183   98.816002   34.363426
H   88.107399   28.949808   22.318666
H   51.481163   15.901114   29.785751
H   55.830967   45.788860   17.098537
H   97.555771   93.994133   65.176247
H   59.109764   70.205467   34.658394
H    7.026970   16.612305   55.331116
H    6.615936   37.039959   41.365894
H   41.974072   77.572380   93.447983
