100
TIME:    9.289, STEP:  9289
H   89.145172   70.176064   90.641678
H   43.936203    8.220394   63.807644
H   39.440258   42.191383   14.301538
H   83.035736   49.944145   31.000429
H   11.961790   17.311295   13.843239
H   83.972778   91.144630   98.666351
H   66.131905   88.575478   16.865078
H   89.789215   92.218826   55.309387
H   25.286522   93.192383   15.377378
H   21.043154   49.761280   71.422646
H   36.214874   40.004013   44.984230
H    1.303998   89.300316   31.727333
H   51.420990   99.738411    1.992670
H   95.146240   76.444588   64.138359
H   93.430183   40.293556    4.193772
H   28.033176   99.278915   61.972717
H   77.140846   96.366707   19.002668
H   99.706406   42.836098   77.523026
H   89.946548   68.040054   52.741024
H   42.252819    8.551638   48.770897
H   13.054188   31.468077    5.124680
H   52.925823   56.415268   28.234100
H   61.720665   19.081450   66.581238
H   55.976528   47.951630   17.191965
H   97.357285   49.496986    5.138874
H    3.807306   52.263779   16.745367
H   61.079094   56.345776   84.274643
H   48.762398   90.018829   73.818840
H   13.151526   91.862999   18.075947
H   57.174324   60.936722   21.837288
H   81.636803   55.017704   74.462982
H   52.270405   95.868149   39.334801
H   24.661552   88.855301   34.623436
H   70.584381   22.441162   80.420982
H   49.778252   56.362343   90.202744
H   80.114532   12.986753   90.223671
H   70.734253   64.351814   40.402119
H   80.059731   88.960014   77.939659
H   52.981792   79.026146   44.139038
H   88.273407   42.578415   68.874832
H    0.414683   74.909195   61.189297
H   17.387711   78.029984   54.179714
H   91.228302   19.210693   72.426109
H   86.213905   68.564919   88.963203
H   50.903419   65.407997   50.998066
H   58.222588   40.084270   20.898920
H   14.314715   30.006414   14.635313
H   56.754574   91.043686   43.327839
H   36.556328   63.134151   73.933380
H   20.759771   72.122032   34.045704
H   43.003971   72.861855   51.135559
H   56.574612    1.788357   64.271034
H    1.544985   75.869507   63.383591
H   61.575600   55.649017   41.713509
H    1.190416   72.649063   79.346970
H    5.165197    2.762597   76.407303
H   85.134155   21.516563   39.448723
H   34.377380   99.655296   74.291527
H   22.882519   31.262648   98.368477
H   46.039974   41.772038   99.409340
H   45.659801   46.589039   90.155098
H   69.233147   41.481369   75.058449
H    4.690386   73.418236   96.495850
H   80.899353   92.364120   74.944824
H    1.018413   18.946011   60.612843
H   30.710873   80.489952   95.422539
H   42.294968   69.504852   15.534966
H   38.711090   48.785591   10.270523
H   19.863848   82.338043   77.643463
H   18.679749   15.207689   82.141800
H   27.057766   63.376171   50.727760
H    8.341046   43.169334   36.925823
H    1.331700   58.836941   23.578968
H   25.722874   61.517857   51.232491
H    9.931733   41.992794    5.599891
H   45.256714    2.910097   70.896469
H   10.422008   21.813541   55.486809
H   68.386147   43.342690   27.446541
H    6.955851   26.233997   21.322313
H   43.983696    3.002937   20.665459
H   92.663139   25.381327   35.174294
H   38.335091    4.715755    9.886518
H    5.423013   62.463169   14.580014
H   89.217415    7.038836   15.011236
H    0.034332   67.836227   47.289230
H   37.505482   50.255455   86.839462
H   87.546150   27.966194   66.478539
H    5.421303   61.760963   99.266098
H   48.458500   76.975777   52.218758
H   45.066738   27.101448   56.274216
H    4.166951   75.008362   29.628807
H   65.590836   94.101364   10.521035
H   80.896378    6.229887   37.337212
H   44.870522   76.714279   53.354763
H   95.988190   17.677219   29.536154
H   61.154907   28.919001   87.659836
H   25.285046    0.755598    2.968882
H   20.347391   46.079594   92.400780
H   66.206505   76.914345   66.987373
H   16.187683   40.263424    2.900503
