100
TIME:    3.760, STEP:  3760
H   63.048737   77.210205   95.703629
H   96.678276    8.605249   15.179329
H   44.385719   44.413109   79.205696
H   82.107712   77.737846   34.064373
H   61.493073   74.138084   63.755508
H   69.718025   97.134605   51.111885
H   55.907482   15.230150   84.489830
H   24.357712   13.890269   62.964260
H   61.199959   24.784836   63.409817
H   72.089958   70.371391   54.929199
H   50.508987   17.534016   77.566780
H   12.330704   12.159870   25.287828
H    4.089422   34.222290   51.415115
H   68.907799   93.486488   43.378262
H   26.237213   34.168625   70.034035
H   50.343353   82.865654   20.928545
H   21.750435   30.665516   15.675985
H   81.488487   11.851926   69.191101
H    3.831852   36.090355   61.451969
H   91.218620   25.968500   72.330925
H   41.152985   81.897583   55.188332
H   22.855209   49.075439   99.079575
H   35.542610   64.042381   24.772640
H   69.696754   81.776978   27.822857
H   95.105621   87.972336   64.308266
H   29.416235   15.574580   36.746002
H   37.849751   86.178543   74.575600
H   15.284266   31.943787   91.056572
H   92.927994   90.228836   79.435341
H   45.167831   97.779350   82.298035
H   64.037209   59.221180   11.899712
H    3.165984   48.625244   51.182014
H   35.206577   93.383232   36.527451
H   36.971008   29.141090   13.348507
H   87.307205   74.692894   53.684990
H   99.478325   79.853546    7.707994
H   40.431915   66.836411    4.738666
H    8.585443   90.139778   87.774422
H   86.361694   99.494987   79.940483
H    9.043819   60.185493   33.862980
H   78.282608   85.198502   30.929670
H   93.693741   80.609589   79.449478
H   43.627918   86.047546   73.061638
H   39.257111   75.786469   48.366455
H   30.503836   83.540710   77.863953
H   29.578487   34.633045   98.435036
H   71.109665   29.319965   61.558571
H   56.440220   34.096741    1.225447
H   74.937119   21.046677   94.485504
H    4.735927   87.966988   20.685421
H   43.257755    6.639500   93.061661
H   87.862137   14.839008   27.224812
H   86.869057   43.810486   84.494759
H   89.621056   45.859596   97.735748
H   41.416824   88.103943   32.326786
H   98.270828    8.579092   64.627533
H   34.619305   81.053368   13.594837
H   46.078606   21.802078   16.706062
H   86.820137   97.637283   22.825520
H   10.898404   16.793715   56.667244
H   96.883919    3.715753   21.237049
H   65.464867   92.944534   25.225883
H   29.326311   50.707695   75.635979
H    1.231392   62.247971   25.055836
H   81.563927   60.540020   45.721790
H   70.362434   55.352058   68.504349
H   85.896378   78.354370   48.595501
H   20.637032   32.576309   45.952343
H   44.300835   79.616714   24.411572
H    6.564409   37.259613   93.815643
H    2.634611   39.569801   17.044212
H   63.936821   26.738220   31.910957
H   61.832535   32.321163   65.344719
H   47.440456   11.438763   79.747887
H   43.455776   33.999081   86.431190
H   14.544621   48.554031   42.928997
H    8.338221    0.654374   57.546726
H    8.631968    4.862856   22.090105
H   41.817780   42.474422   59.636017
H   15.127964    4.175545   96.993950
H   84.454697   68.180588    4.715627
H   23.441498   68.783218   72.368530
H   55.694256   70.018799   88.021393
H    8.832624   33.910713   19.999344
H   69.248459   13.693609   83.262650
H   64.758850   47.166283    2.888915
H   18.276632   29.970299    2.834585
H   16.479830    4.259649   56.640175
H   33.715439   84.821709   97.438850
H   33.903835   54.580605   58.626328
H   77.897278   76.459923   12.866128
H   56.497581   78.275932    5.171234
H   26.476990   40.336166    9.771097
H   10.645533   41.304657   80.335564
H   91.581337   12.931194    2.488551
H    4.482182   47.252571   73.239983
H   64.151215   83.459404   20.948233
H   20.668127   48.251831   95.871712
H   29.595543   53.058178   30.097488
H   72.758095   82.145149   35.527054
