100
TIME:    9.076, STEP:  9076
H    3.549590   89.709297   90.836685
H   49.818924   96.678207   50.376514
H   35.778996   26.867329   16.801971
H   82.999985   58.719475   42.676422
H   13.870424    0.238677   19.618046
H   87.274902   91.375389   77.573059
H   77.296074   74.193687    0.208184
H    6.530594   73.790634   74.866096
H   30.522469   13.671742   28.784945
H   26.861685   46.702915   63.082832
H   56.027618   31.433495   65.502251
H    9.434174   78.623665   46.889137
H   65.003250   12.630440   23.159855
H    5.692662   77.101112   47.928387
H   90.843086   59.319771   14.436607
H   36.597626   17.908958   79.653381
H   94.268990   82.277428   99.612434
H   95.149734   53.200737   84.907303
H   86.628174   59.104580   41.519978
H   47.990910   13.074995   34.268852
H   25.694008   52.673477   10.906342
H   32.505306   56.132507   46.373032
H   64.564522   20.812952   72.675217
H   75.767181   45.403534   33.011173
H    4.975265   66.389267    3.566599
H    4.812019   58.543015   36.789875
H   79.445793   65.200516   80.049484
H   66.734192   80.076706   66.779076
H    8.519696   72.537773   28.144012
H   49.006767   66.208420    4.904927
H   73.254738   35.918362   91.314865
H   38.821400    1.753699   59.053291
H    9.657536    4.439448   15.434712
H   61.584793   41.961395   89.394569
H   55.079201   72.489449   77.244507
H   61.598591   96.303223   90.893196
H   50.305077   72.152107   23.618490
H   88.864311   92.856911   62.907959
H   61.973255   83.667320   64.780563
H    8.336054   62.519539   52.116051
H   14.971273   67.599670   56.171108
H   35.338135   77.194702   43.306431
H   89.395233   17.932583   57.040768
H   99.812416   64.989784   68.136421
H   69.379211   73.809563   32.769756
H   60.970566   36.021618   20.033575
H   12.649434   18.422167   12.589767
H   56.741573   88.849854   30.148594
H   30.330719   80.775734   82.429199
H   16.289228   68.878410   48.939388
H   42.878391   93.413902   49.103943
H   46.222973   21.553215   78.253059
H   97.127663   74.634460   75.753555
H   66.508484   59.125023   32.314156
H   18.150284   53.982742   77.536652
H    4.899906    2.986652   83.658325
H   71.629898   27.662544   19.190710
H   50.237976   19.771029   79.777733
H    6.083427   22.262247   14.720572
H   60.095127   25.399548    5.467552
H   32.222172   56.493786    6.760551
H   76.792931   43.463943   84.695061
H   90.230286   87.952782   11.101898
H   66.273804   91.203827   80.726791
H   92.564743   35.958775   40.777348
H   43.795784   91.078850   82.828316
H   59.384109   62.140484    5.250821
H   53.424393   36.604134    0.087891
H    9.247581   97.642868   91.001465
H   14.353835    4.509506   82.593567
H   33.822300   77.868538   53.282356
H   25.880964   50.241600   21.313305
H   15.219780   69.373039   29.040798
H   30.411175   74.999062   63.888466
H   99.671875   41.679157   89.450150
H   40.220650   89.259392   85.229507
H   91.076981   40.249859   51.708542
H   58.379932   57.269463   15.682723
H   96.741646   26.859646   18.944849
H   54.429588   14.606367   39.015648
H   88.493233   23.177744   22.443565
H   22.352123    3.333031   27.706125
H   91.950859   58.901035   94.294914
H   74.562614   88.811989   34.464863
H   10.405472   81.161728   67.937256
H   42.408291   42.430786   72.048157
H   73.320366   43.453026   56.321907
H    1.995937   78.804604    1.473990
H   44.038334   88.835472   53.960823
H   63.899570   35.865402   48.660805
H   95.449974   63.506252   25.130638
H   49.830990   78.081512    6.463181
H   67.242615   99.838615   20.865595
H   24.425764   63.803333   38.778271
H   99.670578   36.757061   24.642282
H   43.561996   37.330017   98.661499
H   42.191856   88.531914   15.218998
H   20.758532   35.541073   96.677940
H   76.353386   75.994560   84.827293
H    2.957661   45.728504   23.419895
