200
TIME:    0.753, STEP:   753
H   25.234507   60.772457   24.111559
H   32.536560   40.367374   10.723270
H    7.385665   91.592079   70.616203
H   35.134827   82.969826   31.084873
H    9.763491   96.731155   46.282795
H   72.929810   38.891369   50.365337
H   10.791678   54.940140   59.580875
H   14.384669   11.037990    6.863237
H    8.261574   79.815453   35.204788
H   92.802643   67.712997   75.837700
H   30.074339    5.552764    9.172951
H   32.899124   55.715549   37.185703
H   23.765125    4.033662   40.266319
H   80.156845   55.371311   66.985863
H   94.854324   75.893692   41.716366
H   14.347466    4.829460   43.256512
H    8.339734   31.744825   90.524727
H   24.380842    7.828854   34.387329
H   82.093849   11.129708   50.035664
H   91.688339   72.659691   17.584301
H   64.241608    2.366697    2.337904
H   78.608330   68.422905   50.805687
H   79.643234   58.811531   36.827057
H   19.474138   92.736267   89.977478
H   25.544060   33.336063   27.105137
H   18.236437   85.103172   90.013367
H    8.830328   69.090263   69.708008
H    6.283785   91.291779    2.081122
H   32.675163   40.936836   35.334461
H   69.867516   34.507133   80.880371
H   12.691730   72.881660   16.822012
H   22.597321   75.529770    6.233539
H   14.728043   20.023968   79.445274
H   79.448143   64.137604   47.256996
H   23.369793   68.603439   30.316528
H   16.303982   38.225323   85.359039
H    0.988442   63.356636   89.806190
H    7.540053   58.025322   92.102287
H   34.084023   28.031034   55.834721
H   85.163002   37.578907   43.657318
H   80.656952   81.259300   18.551937
H   38.873459   32.349590   24.619371
H   67.465103   75.997238   69.377136
H   36.138412   88.149651   37.095352
H   46.305134   91.946754   62.876564
H   33.840641    0.487739   48.267113
H   89.641434    1.078981    7.426359
H   77.626633   65.542778   29.205460
H    6.919908    9.284696   61.536194
H   43.759346   20.116564   84.009636
H   66.004761   64.002991    7.538284
H    1.527984   44.527691   74.571037
H   66.013268   79.751343   14.632276
H   14.771514   93.009491   89.300003
H   55.484695   64.975975   74.182419
H   98.729546   59.711475   95.446594
H    3.966451   18.686745   44.151676
H   73.013351   70.504982   96.043892
H   17.356350   84.387405   19.533833
H   31.238365   93.108559   57.510902
H   48.758076    5.367638   27.247992
H   99.156639   17.640142   52.998978
H   85.580330   35.833275   67.577744
H   36.555901   65.884232   15.121380
H   79.594917   83.726791   38.907337
H   18.615837   36.491356   42.084396
H   67.012794   12.340923   96.433907
H   94.468636   92.616264   97.428070
H   34.769821   12.785707   55.486679
H   42.283943   50.571243   50.955196
H   58.240116   85.464897   87.003403
H   17.722746   10.337746   41.173843
H   93.775528   34.531948   82.317741
H   24.578369   97.688644   75.507545
H   85.391586    9.175855   43.491478
H   66.280441    0.965437   59.525234
H   93.259293   49.047970   64.889244
H    7.554547   15.311390   30.425529
H   15.431561   52.547722   23.573311
H   60.545303   87.805901   69.932953
H   65.141006   21.431828   93.517471
H   49.193871   59.364250   71.998192
H    8.998253   19.293480   75.269989
H    7.945168   78.634483   10.571220
H   20.640186    4.748619   43.244091
H   39.119709   67.825272   17.103802
H   58.847301    3.853087    2.947433
H   71.065361   99.451096   30.791430
H   81.387863   73.305824   79.018250
H   20.874668    9.041772   49.221691
H   19.738569   39.321350   78.472694
H   80.482056   93.036423    9.561375
H   71.630074   11.076406   81.119316
H   37.024040   76.003189   83.190720
H   38.123413   49.986893   89.305649
H   48.027534   39.178921    4.941589
H   86.264473   96.535133   20.422791
H   92.792511   36.409763   53.450695
H   25.393684   64.639107   54.699245
H   76.124161    6.263018   27.375650
H   32.754482   94.610291   93.096260
H    9.647818   84.417793   63.034866
H   33.813408   18.421761   37.671318
H   46.525917   68.886642   10.534635
H   24.658703   20.731075   41.719566
H    7.732682    1.656539   19.872753
H   89.959579   36.466621   53.871765
H   61.728210   53.970974   98.904823
H   85.833694   33.614140   23.938755
H   20.846121   20.907774    8.048018
H   53.944027   91.608871    1.156784
H    6.592259   76.245544   96.354584
H   48.184093   86.227669   82.776901
H   61.486412    8.337702   61.725407
H   46.730949    3.330428    8.785252
H   93.102844   90.790764    2.077215
H   11.482939   15.666264   90.160507
H   38.168385   52.246872   23.724144
H   38.344334   76.973808   58.185997
H   84.320740   56.913570   68.480133
H   45.908760   25.168423   70.709717
H   96.154579   15.327435   63.278126
H   44.604256    0.186301   39.247757
H   96.519295   48.858662   95.400047
H   61.566139   96.250748   75.846466
H   66.516792   76.387833   15.626316
H   82.635216   51.585220   51.242706
H   64.207581   91.593437   39.335239
H   98.780807   33.914268   73.199509
H   92.610069   21.717848   75.241302
H   69.317291   66.868744   23.015965
H   62.009277   91.139420   21.424786
H   90.762611    7.553246    1.191578
H   75.766060   26.155731   56.020771
H   29.768642   92.094254   32.843590
H   48.694725    0.968462   76.123901
H   69.742027   87.871758   80.876724
H   95.594063   48.203400   75.092728
H   59.722183   51.507774   71.428757
H   43.725830   84.486732   81.203140
H   76.014824   47.982616   31.481277
H   33.621948   56.597851   58.205750
H   38.514370   66.202766   82.080986
H   34.206322    7.957934   86.625374
H   64.415352   52.753441   65.843430
H   64.736618   70.813721    5.276763
H   56.864281   94.531227   43.608719
H   28.644669   54.322876   65.881737
H   78.899506   43.373646   92.844673
H   25.814951   94.275558   70.799355
H   58.138737   70.022247   47.471413
H   55.382198   92.914642   32.076069
H    0.007362   12.656666   85.456490
H   23.470724   12.917998   63.275352
H   33.954926   67.427429   70.033707
H   78.731003   44.800915   69.844398
H   64.681107   76.268654   86.830124
H   53.339581   28.429008   21.742678
H   88.902618   99.801331   83.579742
H   57.928230   36.012390   97.927887
H   58.995068   63.567978   69.776016
H   19.517586   20.397799   31.099766
H   87.301460   12.203215   37.018745
H   30.105209   35.250053   49.251072
H   54.042267   39.495342   14.865132
H   20.752214   48.116463   59.497528
H   66.066208   89.269539   57.660034
H   24.080353   54.272984   69.225937
H    1.043792   26.501919   35.645588
H   49.883823    6.588398   84.626465
H   69.564636   11.734578   35.933022
H   28.440697   46.392536   59.033451
H   47.584843   55.410507   75.989639
H   64.908936   62.267918   86.141380
H   47.594513   91.177460   75.110184
H   16.745079   50.432926   23.782063
H   30.147705   68.947136    8.367023
H    6.276646    9.690094   71.439865
H   62.482018    9.453705   63.135147
H   61.897663   59.958015   93.621765
H   72.051903    3.573121   29.791933
H   29.574986   30.732265   88.344078
H   42.014389   89.625923   16.230461
H   62.652805   26.169601   96.063011
H   92.156990   66.083977   76.283340
H    9.999839   40.552521   86.521706
H   49.214935   95.737579   10.632011
H   65.775352   88.954414   43.477200
H   91.761726   63.461067   72.406403
H   58.942303   55.482716   72.184402
H   72.326363   14.051807   75.638069
H   43.447453   98.870438   18.090166
H   15.495325   29.728479   69.558563
H   26.141422   84.004631   43.651794
H   67.289978   31.341558   20.138208
H   76.580582   11.642247   22.538023
H   12.871247   99.547615   20.781782
H   14.000480   87.210526   32.499058
H    5.072338   13.047310   55.073906
H    2.657188   17.612349   90.621620
