100
TIME:    1.312, STEP:  1312
H   28.596788    1.704310   97.944839
H   64.774574   75.880577   60.760799
H    2.307158   68.294624    7.934832
H   81.696823   78.595299   68.249504
H   83.419586   77.920113   30.130638
H    7.671465   99.786705    8.677061
H   84.208199   49.930973   93.052879
H   16.765686    2.107380   87.730431
H   21.376534   60.149948   17.500986
H   38.985634   35.221733   59.068581
H   78.215988   19.033405   13.371340
H    5.763287   89.454628   99.539986
H   59.804794   82.329460   94.727074
H   90.119347    1.032145   57.084873
H   96.458717   52.832104   87.705734
H   48.771912   96.978691   24.133286
H   18.584309   68.761642   92.810188
H   29.181137   30.898254   54.061813
H   65.695061   33.393585   32.483631
H   57.168732   77.952011    5.659679
H   86.420700   25.603531   21.634697
H   88.150871   45.831627    7.540174
H   68.226936   83.951805   94.811447
H   97.142479   52.417118    9.633205
H   82.659660   82.121284   46.242538
H   40.643116   88.515671   66.198074
H   48.943977   87.938919   26.001425
H   21.838951   17.679424   10.139800
H   39.699234   68.126892   95.154076
H   51.300884   58.367966   87.689140
H   67.712105   39.698242    5.592058
H   48.597599   16.264549   77.805672
H   62.774479   72.490196   15.992276
H   33.536949   53.485725   16.478968
H   48.160011   59.743019    4.621261
H   86.627838   87.548172   16.129927
H    5.637259   56.488136   11.845687
H    9.764864   34.940823   15.026276
H   91.737411   52.500664   16.377480
H   39.617706   89.358101   41.259647
H   45.579956    1.201171   73.254684
H   13.706108   70.742531   64.440079
H   22.541861   71.367615   96.240822
H   95.579781   34.758995    9.014792
H   42.849083   80.125259   68.381546
H   61.160885   87.941170   88.499001
H   49.933582   96.514816   38.834175
H   56.309483    8.891680   49.757046
H    3.383463   23.789642   92.137497
H   53.406628   50.718876   91.902306
H   43.444523   42.978691   67.250381
H   68.893700   41.995319   87.931259
H   36.095367   29.616150   26.670349
H   46.308437   85.798988   89.712112
H   36.311813   73.522507   11.539354
H   95.207840   11.153097   47.963226
H   79.426361   51.689857   80.769508
H   28.363766   52.985619   79.761063
H   93.752144   94.203186   10.760002
H   72.439331   28.632536   26.293175
H   42.463024   17.558388   12.102551
H   52.345703   15.733389   35.991158
H   63.226341   17.684875   43.549904
H   33.131638   48.931442   91.518684
H   84.398064   56.057644   17.744844
H   20.746895   77.049690   23.761030
H   82.304123   93.722565   30.406441
H   89.736839   92.571274   28.923788
H   22.291580   55.514374   77.946663
H   56.962914   14.132465   98.970428
H   80.370003    6.132040   46.412052
H   65.785660    7.982578   52.680847
H   21.447060   53.408138   28.106922
H    1.314012   66.355042   25.232536
H   25.429070   30.510519    0.855921
H   56.677898   91.659447    7.649238
H   86.076195   12.831301   14.249401
H   93.620468   64.933723   86.896744
H   24.439974   49.659031   32.317833
H   35.182663   37.499710    7.891231
H   36.556789   42.854900   58.403652
H   39.763699   52.795914   77.068680
H    0.812100   29.154703   54.861362
H   40.424152   24.431131   43.593300
H   88.445526   66.819092   20.568642
H   21.094616   57.248455   32.892647
H   54.780235    7.959846   86.104248
H   77.075775    0.252891   82.104500
H   82.909859   21.122076   17.465630
H   50.340042   55.297684   71.116829
H   77.714973   44.275509   61.168774
H   75.361671   94.181389   58.519585
H   69.464470   66.941025   20.414850
H   74.038094   92.815025   15.280488
H   33.909519   32.208717   46.234367
H    2.287394   43.921135   99.682220
H   58.461868   42.973339   61.734802
H   11.682364   27.408569   35.044586
H   46.211296   42.505810   35.150890
H   20.721054   45.003811   71.321480
