100
TIME:    7.706, STEP:  7706
H   96.197258   15.344102   92.090958
H   87.656143   22.440334   63.994701
H   12.230028   28.304012   32.883076
H   82.770035   15.163143   17.770191
H   26.146616   90.427223   56.763672
H    8.517091   92.859612   41.897171
H   49.097919   81.683899   93.072388
H   14.209892   55.268002    0.653754
H   64.199684   45.392960   15.021252
H   64.281532   27.031740    9.439583
H   83.461685   76.310287   97.468872
H   61.726883    9.952482   44.407204
H   52.363716   95.552383   59.304951
H   73.526268   81.323830   43.670620
H   74.203072   81.694931   80.319855
H   91.681091   37.734131   93.375275
H    4.436317   91.663269   74.895935
H   65.856583   19.864838   32.398109
H   65.284637    1.627688   69.342499
H   84.903793   42.167065   40.992897
H    6.991745   89.060425   48.088146
H    1.162064   54.313812   63.041199
H   82.855995   31.949846   11.872027
H    3.059037   29.014376   34.759003
H   53.973213   75.036331   93.450478
H   11.272915   98.930588   65.714546
H   97.581619   22.147108   52.869305
H   82.331596   16.129721   21.491240
H   78.730247   48.240406   92.905968
H   96.476089    0.115593   95.993919
H   19.334497   13.067930   99.704887
H   52.318783   39.602139   85.881065
H   13.156832    4.675141   92.014290
H    3.698119   67.513802   47.109253
H   89.174507   76.217705   93.890488
H   42.506824   88.995514   95.199532
H   18.905006   22.325285   15.667823
H   45.488564   17.927364   66.231148
H   19.798588   13.516657   97.544060
H   37.374481   90.773254   44.326828
H    8.601389   20.595007   23.894499
H   50.794273   71.822235   73.364037
H   77.605072    9.713871   58.084888
H   87.289658   41.987328   34.187412
H   88.217293   27.853230   15.533230
H   78.654015    9.895362   14.467741
H    1.938968   43.917061   99.433342
H   56.657955   74.739288   45.381145
H   90.285286   94.239754   37.078423
H   87.529053   48.023685   44.729103
H   42.972462   25.679209   34.658905
H   79.639969   48.679539   68.185883
H   68.718391   66.690735   55.318336
H   98.241577   81.474258   71.860977
H   27.232056   33.921700   65.892822
H    3.193573    4.427759   30.296371
H   84.778778   67.193031   88.892097
H   52.250900   49.150948   15.065784
H   98.029579   64.375389   19.896347
H   50.501434   20.096577   44.433617
H   45.801311   20.207283   13.576241
H   25.416939   56.215714   46.682838
H   97.220497   81.439240    5.046906
H   72.197929   83.740906   17.920155
H   38.187073   45.379200   13.195109
H   27.955757   59.185234    1.822760
H   69.301636   14.779413   39.108501
H   48.059685   58.251884   34.593964
H   40.968643   96.082329   76.926453
H   86.529610   35.696575   85.499298
H   77.331902   71.085907   69.713326
H   38.697071   95.729881   20.893240
H    4.544981   37.142155   64.170929
H   60.565975   61.705479   45.288818
H   33.676239   39.661869   85.575867
H    7.829717    1.454596   77.412727
H   66.652061   58.827614   27.407999
H   94.022217   46.845425   40.013630
H   31.043913   30.883770    3.655287
H   21.615601   89.236748   57.042397
H   61.672707    9.004464   40.559998
H   19.548912   94.445175   42.320133
H    5.296024   35.989658   63.824615
H   80.309364   71.578247   59.592251
H   77.111862   66.862999    0.742838
H   73.939499   92.108063   76.911179
H   81.821098   43.063499   90.995094
H   79.962700   88.432312   15.678711
H   15.605145   65.114464   65.165657
H   85.024963   92.229263   99.689087
H   39.383991   89.533516   96.198410
H   48.464863   75.044327   80.355766
H   79.423004   58.738949   14.921390
H   92.021309   80.686974   46.402493
H   23.360161   59.474022   93.162811
H   30.405624   91.430969   69.423958
H   50.936119    9.911201   94.009300
H   23.402956   67.750786   24.183718
H   41.616875   70.078575   99.578133
H   17.861208   80.884506   55.397572
