100
TIME:    8.103, STEP:  8103
H   69.349358   78.937492   91.727493
H   76.691635   43.954395   89.025284
H   19.054071   56.866058   28.222874
H   82.836670   98.805840   96.009102
H   22.589209   22.248432   45.999069
H    2.360156   92.429512   81.213600
H   28.292343    8.490321   24.118320
H   83.006470   89.614616   64.204292
H   54.440666    7.222327   90.032074
H   53.438179   32.732075   24.985256
H   46.533707   92.284546   59.226746
H   46.573448   29.851925   16.148701
H   27.048424   71.521332   19.853456
H   53.868904   80.100166   73.882607
H   79.025032   46.232925   61.226303
H   75.718948    3.010885   60.421173
H   72.511940   17.921856   11.036412
H   74.343475    0.547173   18.636482
H   71.469589   18.283298   90.259872
H   74.205826   33.737720   68.022530
H   83.433220   49.538624   37.314457
H   39.222843   54.840836   29.232956
H   77.555473   28.722586    0.513007
H   66.173325   33.763641    5.274090
H   39.773872   43.552292   96.382423
H    9.401073   87.227036   28.353725
H   63.349274    5.643890   60.747395
H   48.833672   34.660343   34.614120
H   87.362526   84.259720   74.139091
H   11.698559   90.289932   27.553497
H   34.959209   48.666977   68.295509
H   77.385704   28.634602   49.128761
H   41.121441   75.628471   27.779188
H   20.472958   31.131020   30.383982
H   79.294334   46.159203   18.044546
H   77.017761   20.090891   93.951637
H   56.981449    7.785196   46.949978
H   29.080906   10.661663   94.248192
H    3.040338    4.867720   59.071358
H   99.981812   53.608177   75.562439
H   81.469147   34.215836   33.247646
H   17.337379   73.379074   93.633232
H   81.021637   12.095320   86.761604
H   61.938747   48.651329   73.003082
H   53.779884   12.190762   49.505844
H   73.529167   17.466022   16.080614
H    5.042424   65.506844    3.245748
H   56.682186   78.828262   69.945274
H    1.891472   61.358589   21.241493
H   95.864502   54.066280   16.970333
H   42.945202   87.350883   38.844803
H   98.933868   11.840227   42.125488
H   76.950859   68.992676   32.262581
H   89.045929   74.998535   89.379959
H   95.621559   68.713913   69.266983
H    3.688036    4.010154   16.781555
H    9.947762   55.737846   26.650291
H   22.689611   11.658777    4.839562
H   29.340687   81.149269   89.418869
H   24.304741   50.612438   33.141991
H   70.844009    1.745392   82.622200
H   11.326637   52.520493   28.718891
H   24.172829   54.349030   77.823425
H   99.457756   85.903519    7.141000
H   53.946281   13.670824   50.166260
H    3.568810   39.449120   25.296955
H   37.450043   28.504669   58.275188
H   20.636299   80.956291   53.572861
H   60.756248   67.556435   52.027687
H   94.592461   55.635624   84.657272
H   64.725746   44.073936   64.951942
H    6.005507   82.548241   49.992168
H   78.660187   17.504873   53.990849
H   51.827686   36.581005   21.700644
H   52.800522   40.246441   15.676405
H   17.215532   26.898712   50.699608
H    2.707808   24.465088   34.449135
H   12.672618   20.888012   61.939617
H   50.080360   29.717655    8.085766
H    2.147098   67.610619   22.840401
H   69.444786   13.111611   64.288162
H   49.338478   97.019714    9.107533
H   30.406912   42.628941    1.631095
H    7.623284    5.550177   23.333652
H   57.781616   42.028950   62.258034
H   64.804428    6.689738    4.480046
H    8.335908   14.198324    9.925652
H   86.347557   56.664825   11.562477
H   23.845184   43.009773   61.918709
H   49.925205   75.897598   13.880352
H   55.630848   10.970666    4.582509
H   77.838844    4.902757   87.921883
H    4.871490   70.649803   45.622009
H   30.389753    4.772501   73.171638
H   16.495228   23.912064    2.285573
H   63.196167   75.753540   48.918510
H   19.424364   32.693092   71.177681
H   22.636652   87.396034   16.213247
H   22.704613   71.792915   66.327202
H   42.519238   70.695389   17.152035
