100
TIME:    9.934, STEP:  9934
H   45.525787   11.026900   90.051163
H   26.123142   43.173695    4.474784
H   50.527180   88.596031    6.729412
H   83.143997   23.370165   95.645645
H    6.182123   69.010895   96.355141
H   73.973389   90.445854   62.544006
H   32.329525   32.129562   67.304916
H   39.093491   48.018559   96.086296
H    9.431190   31.178417   74.778435
H    3.423669   59.022526   96.677010
H   76.218475   65.957153   82.853386
H   76.689095   21.629955   85.816383
H   10.291439   60.695938   37.894356
H   63.209213   74.456520   13.221310
H    1.264540   82.678986   73.172630
H    2.097377   42.865036    8.431769
H   25.273933   39.027298   77.719559
H   13.500030   11.450397   55.164131
H   99.995148   95.095490   86.734756
H   24.876911   94.853241   92.685539
H   74.778580   67.257881   87.616150
H   14.762604   57.271515   73.306427
H   53.108612   13.835289   48.148651
H   96.045792   55.667694   69.290146
H   74.287827   98.343765    9.899902
H    0.764615   33.249191   56.048862
H    5.458664   29.531694   97.069138
H   94.339912   20.125248   95.136436
H   27.176510   50.382023   87.586990
H   81.907066   44.973129   73.113197
H    7.020128   12.857145   23.432632
H   92.996262   78.044434   79.623955
H   70.096107   41.663300   92.730125
H   97.836655   63.330864   53.247444
H   33.726082    7.526747   29.445753
H   36.182545   63.509319   88.196236
H   32.599159   40.731209   91.225784
H   53.399929   77.159554   23.456108
H   25.754124   64.971886   81.634254
H   27.522015   82.195099   19.620718
H   56.332748   97.043671   76.385216
H   63.030205   80.564835   87.097893
H   96.779144   23.081028   19.016171
H   45.033047   79.391029   52.026180
H   94.927338   39.916843    6.176348
H   49.901245   52.386669   23.519331
H   19.358288   65.087646   20.828611
H   56.793941   97.686981   83.236816
H   55.408615    9.719492   48.182587
H   34.297333   81.944267   88.947731
H   46.596272   10.863388   52.346115
H   87.921127   41.937744   21.930513
H   14.923792   79.609436   25.920750
H   46.640488   45.123085   70.176338
H   49.835243   29.172815   84.828918
H    5.968544    2.084120   54.449982
H   26.024651    2.904798    0.793416
H   86.350052   38.743660   57.678368
H   73.754951   58.519775   48.852276
H    3.478233   91.347992   81.064003
H   86.348511   16.594526   39.870373
H   46.340843   35.477798   45.874100
H   48.507992   29.450167   52.287430
H   25.189716   95.877686   57.434204
H   26.619736   67.431679   20.678675
H   91.088837   48.424980   33.560467
H   90.544655   91.806641   46.676098
H   94.156288   85.673103   41.105255
H   52.012474   35.992447   37.189915
H   31.779343   47.602398   80.773773
H    6.573749   19.486134   42.992012
H   55.225586   21.753319   84.203583
H   59.277161   26.933969    7.039623
H   11.525906   20.697815   12.909285
H   41.000923   42.942539   54.504124
H   60.506767   44.249355   27.497494
H   69.001900   65.988327   66.926781
H   98.689415    1.169988   63.069366
H   37.884422   24.339428   28.521677
H   12.353156   67.867134   65.098274
H    5.289825   32.054150   73.725090
H   86.735039    8.903008   55.924545
H   46.221123   73.249916   76.007385
H   33.592670   62.233231   56.099197
H   68.628769   27.488815   84.764465
H   22.658947   73.947807   31.630451
H   30.624315   81.069115   97.234535
H   15.793608   10.149037   92.583435
H   61.843510   41.062614   46.943489
H   88.039825    0.562715   79.332184
H   30.563528    9.837844   43.250023
H   13.314302   42.610886   22.808672
H   22.241917   25.584021   87.216057
H    3.567651   15.571057    2.436334
H   84.837296   59.903374   44.357674
H   14.429305    3.450072   54.344940
H   74.088219   37.769485   65.874588
H   19.102388   77.994171   79.448814
H   35.480034   79.699608   12.960430
H   56.249214   23.713005   40.766438
