100
TIME:    5.720, STEP:  5720
H   30.501711   97.469109   93.909195
H   42.502083   14.821374   38.769810
H   78.082458   85.424011   56.201969
H   82.436691   96.985382   26.629822
H   43.937531   31.240648   10.612997
H   39.320141   95.011192   45.217327
H   53.183987   47.580151   37.764530
H   70.305573   83.454514   83.002586
H   13.019417   36.338791   40.033371
H   18.528185   98.514091   31.678835
H   68.194565   96.399368   88.770103
H   37.525002   10.404575   85.773521
H   79.061874   15.690689   56.653740
H   71.860725   87.445229   92.534050
H   50.075081   59.093948   75.818146
H   71.534912   11.436988   58.231171
H   64.138741   60.302982   94.102509
H   23.386251   16.502838    1.241612
H   34.358822   18.313547   64.712097
H   38.409706   84.342323    5.776790
H   24.843803   86.773132    1.994110
H   10.762314   51.677368   32.167419
H    9.372840   48.101830   68.694351
H   87.587608    5.256075   82.256607
H   25.003830   32.535286   78.783363
H   20.471334   57.563156   52.534073
H   68.837799    4.702438   13.459257
H   49.904331   23.429955   55.847588
H   35.547112   68.055145   86.785187
H   20.323418   49.269829   38.111771
H   41.173561   34.979176   56.830742
H   26.921391   94.475861   69.735008
H   73.267082   49.979652   13.099729
H   19.785191   49.518822   30.775831
H   38.588333   26.531813   73.035431
H   69.867462   33.444069    1.442875
H   28.421764   95.055786   59.178936
H   27.574696   54.276958   26.086262
H    3.627857   56.787468   90.002083
H   24.433710   76.696495   88.072227
H   44.329819   52.448380   77.106422
H   18.163708   64.034119   71.974297
H   60.510548   97.801086   14.636006
H   14.103088    8.652975   40.007202
H   60.487133    6.211326   45.586529
H    4.289686   72.017075    6.399313
H   86.422165   35.911636   80.372154
H   56.544895   54.284119   22.499075
H   32.231201   58.718445   16.300392
H   45.843410   17.793409   83.599777
H   43.108829   17.414415   13.725076
H   83.114143   32.965893   98.553505
H   27.521900   55.175232   70.661522
H   44.228401   13.874066   84.224693
H   85.359764   59.879292   49.000065
H    0.719986    6.516838   97.904495
H   58.873688   24.498802    0.006935
H    0.132960   36.704567   66.221298
H   41.400597   80.452904   72.356468
H   81.557541   67.447372    0.920183
H   20.522610   12.565971   68.418694
H   95.903938   74.701126   36.542610
H   62.392544   16.960386   41.232880
H   35.821564   72.922394   71.843842
H   59.361137    3.996809   28.248064
H   49.957268   57.914909   84.394371
H   28.642570   46.116833   43.224380
H   85.246132   44.670628   39.651676
H   41.986782   38.783607    1.483174
H   46.271042   35.841362   89.688446
H   40.397514    6.211853   93.532234
H    2.327501   61.689301   75.414200
H   34.037170   35.371338   15.086021
H    4.291988   87.400108   63.290489
H   37.955410   36.795406   35.013321
H   60.885750   74.172050   11.046511
H   86.293999   30.774176   92.209206
H    0.716327   76.704369   30.333887
H   35.807484   36.717281   81.501183
H   19.010719   97.423683   28.137951
H   22.803461   88.457687   21.859934
H   70.512833   81.565857    8.462676
H   79.677971    2.777771   74.688004
H   43.676407    1.631556   40.983097
H   73.812492   91.095253   93.262634
H   19.644047   19.158463   38.997467
H   49.180595   87.462181   96.295105
H   48.022331   47.353817   36.270248
H   74.389267   75.691917   81.408577
H   60.614727   73.940598   28.694105
H   58.108635   82.294708   54.257732
H    1.520975   25.677767   42.514732
H   52.116455   99.146492   61.340961
H    0.084114   60.198925   12.489818
H   57.696449   37.367107   47.525059
H   66.370132   69.855133   72.003433
H    8.575922   95.939949    8.226777
H   27.236406   69.482590   64.050072
H   36.225342   61.506969   65.928169
H   94.502930   31.850735   46.715382
