100
TIME:    3.761, STEP:  3761
H   62.981110   77.118500   95.702713
H   96.650459    8.659468   15.242407
H   44.402908   44.485054   79.193962
H   82.107880   77.696648   34.009556
H   61.484116   74.218239   63.728394
H   69.702522   97.133522   51.210922
H   55.855076   15.297676   84.568031
H   24.279114   13.976781   62.872440
H   61.175377   24.688690   63.346867
H   72.062630   70.385750   54.968361
H   50.415970   17.574253   77.470451
H   12.292534   12.209993   25.216650
H    4.025813   34.161789   51.315727
H   68.858284   93.483406   43.454365
H   26.249378   34.079300   69.985970
H   50.303146   82.778191   20.845533
H   21.670021   30.731655   15.767019
H   81.509850   11.803294   69.156433
H    3.847426   36.132309   61.504650
H   91.191673   25.947264   72.399010
H   41.093643   81.798035   55.161194
H   22.951080   49.076767   98.994415
H   35.529259   64.034248   24.744026
H   69.603844   81.788971   27.748585
H   95.069855   87.893036   64.315651
H   29.411646   15.544785   36.652275
H   37.763515   86.136978   74.595436
H   15.199891   31.990463   91.089622
H   92.949738   90.319565   79.388069
H   45.206177   97.754601   82.377533
H   64.076561   59.310848   11.820595
H    3.229123   48.597618   51.089439
H   35.277020   93.310066   36.617538
H   37.013260   29.049446   13.306381
H   87.282349   74.617302   53.745880
H   99.565285   79.932098    7.704543
H   40.527824   66.799789    4.817460
H    8.544112   90.121483   87.844994
H   86.319489   99.473198   79.843575
H    8.949631   60.091873   33.941662
H   78.214264   85.232819   30.953230
H   93.603867   80.654465   79.496460
H   43.636532   86.053543   73.133873
H   39.193253   75.803223   48.464226
H   30.417093   83.501251   77.949524
H   29.565586   34.652119   98.439095
H   71.117477   29.374352   61.568176
H   56.440273   34.107040    1.287321
H   74.966354   20.963860   94.445618
H    4.756900   87.982201   20.615482
H   43.257679    6.542953   93.072205
H   87.910736   14.746216   27.159161
H   86.889793   43.816284   84.436684
H   89.597893   45.843277   97.779877
H   41.337204   88.191589   32.335293
H   98.272079    8.578039   64.593491
H   34.682697   81.024513   13.689947
H   46.004143   21.707638   16.680302
H   86.899010   97.679535   22.748749
H   10.832416   16.870581   56.638802
H   96.946999    3.669250   21.159084
H   65.429375   92.935226   25.180634
H   29.394201   50.639458   75.567406
H    1.300061   62.253410   25.028683
H   81.603615   60.460148   45.814915
H   70.301003   55.302345   68.563477
H   85.816147   78.388947   48.643780
H   20.567955   32.633499   46.000149
H   44.350677   79.544861   24.348850
H    6.584669   37.309914   93.813538
H    2.602856   39.501762   17.032215
H   63.854370   26.705032   31.984173
H   61.767334   32.271702   65.319084
H   47.418438   11.375481   79.688469
H   43.503986   34.000507   86.506996
H   14.568263   48.618126   42.861713
H    8.429014    0.567700   57.564411
H    8.678950    4.797467   22.145334
H   41.865730   42.471485   59.647179
H   15.078920    4.121082   96.907799
H   84.474258   68.190933    4.775393
H   23.516533   68.789749   72.284912
H   55.757526   70.035492   88.116638
H    8.901423   33.996284   19.908012
H   69.199768   13.631058   83.165710
H   64.735840   47.203018    2.958359
H   18.343420   29.897591    2.882270
H   16.495924    4.179588   56.629776
H   33.736191   84.766029   97.430672
H   33.815418   54.539459   58.662071
H   77.938202   76.513924   12.887246
H   56.571579   78.351128    5.190289
H   26.541088   40.366173    9.848429
H   10.742188   41.365318   80.402992
H   91.564049   12.841618    2.511529
H    4.564779   47.213081   73.188332
H   64.071838   83.516792   20.890718
H   20.671797   48.260345   95.855705
H   29.547905   53.062489   30.013725
H   72.820213   82.119484   35.430717
