200
TIME:    0.373, STEP:   373
H   13.558023   62.033596   17.613794
H   29.149719   34.819813   95.296448
H   15.350061   74.959541   51.899162
H   22.325747   78.528297   41.021778
H   13.798048   87.100113   51.746281
H   85.291870   49.205166   61.612667
H    5.286155   55.209763   52.225681
H    5.869082   94.629639   20.351395
H   92.829773   85.512321   44.474884
H    6.179358   73.035881   90.826408
H   16.829481   97.435371   97.164597
H   31.327774   45.572803   19.079456
H   14.438495   91.421867   55.840660
H   98.117203   53.768070   48.674709
H   13.200590   72.968430   42.651348
H   25.423691   20.486427   51.453915
H   90.464111   13.947546    8.974691
H   33.403896   89.560722   41.152542
H   69.450569   24.886866   44.441715
H   90.479385   77.878197   32.314983
H   59.681213   83.397499   19.747143
H   87.068108   53.898064   65.449394
H   91.022476   61.574440   45.944946
H   11.425319   89.271759   91.169037
H    9.027336   18.053087   40.664555
H   18.550997   68.238701    2.563871
H    1.471280   61.465443   54.429382
H   97.562531   75.615967    1.081229
H   16.670296   52.487129   37.559574
H   87.039299   24.327244   94.025208
H   13.187850   57.005802   16.357420
H   29.507492   66.623520   96.877594
H   23.909714   11.847400   74.803703
H   92.024742   63.723022   40.614998
H   41.605915   84.305344   33.207424
H   28.716778   46.889492   81.001587
H   90.081802   71.558388   86.953407
H   26.336256   48.195686    9.187506
H   48.147896   41.638077   47.387989
H   88.807259   39.141560   58.501068
H   80.543884   99.010918    5.938838
H   19.959276   40.317959   35.887470
H   74.307144   84.726639   55.266872
H   36.984970   69.693535   23.505039
H   33.321201   80.352974   49.163490
H   39.188160   10.377196   44.134346
H   82.480484   19.696224   99.095284
H   86.877884   65.548576   42.866348
H   92.223930   23.704998   61.262222
H   57.357903   18.401705    0.085540
H   75.044373   68.812714   22.597824
H   16.053915   37.987164   66.401176
H   55.763256   90.616058    9.668200
H   20.427149   84.990387   83.672714
H   71.569290   73.427055   86.472000
H    3.600689   69.073563   83.003357
H    5.050919   17.248756   48.227909
H   68.861740   61.671215    2.902955
H   25.374729   77.046707   10.343241
H   40.027199   95.242348   64.535591
H   49.988773   12.781540   38.350674
H   92.326332   16.739950   50.085457
H   75.111427   27.961658   80.397873
H   27.348501   65.342087    6.636988
H   73.486366   78.061813   23.368191
H   33.522572   21.728279   35.253952
H   81.207130   20.356569   88.582954
H   96.596626   91.752312   89.904724
H   21.253315    7.650552   60.296402
H   44.471367   43.948090   50.975491
H   58.406818   78.892479   76.838913
H   28.402563   20.325905   43.833832
H   81.714981   27.962429   95.042198
H   12.198299    6.041271   64.444313
H   80.764511    3.024540   61.359062
H   56.675491   14.381079   62.008373
H   94.865433   34.901470   70.264305
H   21.629080    8.391796   43.419609
H   12.541718   35.618919   31.992756
H   66.272041   89.925194   87.954193
H   49.012928   27.854214   99.159256
H   32.484505   66.198578   83.745628
H   10.480816   15.125199   86.388306
H   20.336945   66.208641   98.186371
H   34.172062    0.730260   54.013058
H   28.414282   81.120865   25.014187
H   41.816128    3.061252    2.076232
H   74.225456   13.594275   16.458658
H   69.756393   72.380981   77.649841
H   22.777973   92.008575   53.402294
H   35.667500   36.040939   80.162910
H   83.128998   89.702377    1.269892
H   53.577782   15.362104   91.941917
H   54.063911   89.655380   72.756607
H   28.495005   55.127121   73.479080
H   63.764229   30.682903   22.808281
H   81.109749    9.678988    4.057197
H    3.238441   30.505419   49.852825
H   34.004219   68.445717   53.352581
H   69.516953    0.088702   27.282877
H   15.800142   84.103699   75.202583
H   95.517998   78.668739   65.130966
H   25.936361   32.309494   32.361488
H   28.266796   68.185043   95.443932
H   25.162434   25.724895   29.399544
H   92.688431   20.261238   37.664005
H   71.958633   31.748220   55.640259
H   63.967819   39.380901   13.598744
H   76.176559   38.410816    5.563816
H    8.639167   26.206007    6.188200
H   48.944408   94.911026    0.889426
H   91.334373   66.689880   92.026123
H   54.784054   81.818031   91.042435
H   62.773643   16.530031   71.524261
H   59.411919   87.506851   22.109308
H    8.610685    1.906425   84.934364
H   27.106670   10.315483   85.730576
H   40.096333   33.542877   31.319969
H   23.913311   62.706997   76.966370
H   74.292511   49.329342   54.304180
H   41.942696   22.643246   83.161652
H   12.550407   24.329357   52.100376
H   35.442879   16.213253   27.974594
H    2.117750   62.532597   12.040938
H   72.936684    5.659065   88.414368
H   52.594982   65.991409   22.963409
H   92.080711   49.810928   65.918304
H   72.519501   88.613091   36.125858
H   94.104446   47.669380   81.859329
H   74.191643   23.518957   68.767456
H   53.977783   80.436859    8.494022
H   76.595001   87.370499   12.463452
H   92.003456   89.065536   98.364494
H   94.399025   16.413031   51.344326
H   10.996420   98.965286   50.305290
H   58.815727    1.456157   81.722198
H   69.112907   86.903435   61.959641
H   92.352791   60.068253   81.096909
H   49.789627   46.193596   71.518631
H   43.519989    2.711086   91.761917
H   57.202106   59.157467   19.206192
H   51.115540   45.051907   49.347336
H   50.730022   59.208977   94.898216
H   51.618736   21.713259   80.328377
H   46.553562   65.356133   53.417591
H   50.813274   64.267395   23.476330
H   47.876854   96.195351   46.329590
H   39.020798   68.467926   68.061913
H   68.740814   59.239353   96.622292
H   13.701564   90.126846   85.019783
H   71.532265   63.568691   50.340141
H   39.386028    3.429662   43.984409
H   82.354317   26.865498   98.795570
H   13.425733    4.195562   72.665878
H   18.886490   57.391457   63.159595
H   67.450333   43.858685   58.152775
H   60.703442   64.872017   82.330612
H   47.936977   34.525963   12.840052
H    6.294670    1.233192   97.672607
H   62.188560   51.517151   83.345062
H   55.262386   79.006058   79.879623
H   37.359585   22.367060   34.391773
H   70.944344   28.771246   37.176750
H   16.156578   24.086800   65.508301
H   57.680725   26.601282   11.131364
H   14.205163   60.207451   61.574783
H   72.609634   95.415779   53.631638
H   23.748398   36.983784   53.512440
H   95.880157   27.737690   36.542881
H   32.542439    9.456039   88.905640
H   76.824158    7.215497   35.964912
H   41.568336   60.507145   57.866535
H   40.242695   71.739395   86.681778
H   69.588257   71.356544   77.325012
H   65.256256   94.036041   92.977768
H    5.013675   48.379265   23.414345
H   34.051437   57.075878   92.471619
H    2.908746    9.327698   66.580856
H   72.200264   18.287745   67.579292
H   79.973816   55.881783   88.261200
H   78.989616   89.955505   38.626972
H   21.910305   30.268398   74.471550
H   59.512016   90.027756    8.702359
H   54.377125   25.466553   82.083214
H   87.242897   82.565758   77.848892
H    2.044743   37.346039   84.619850
H   35.983124    2.246379    2.212078
H   84.031425   72.858223   30.180258
H    2.766794   61.766502   68.063446
H   52.032131   57.549824   67.383377
H   54.173874   26.624058   78.351692
H   46.562611   88.543594   22.930330
H    7.054734   20.688143   60.852879
H   32.779881   68.839073   35.993637
H   80.330444   48.314720   21.381227
H   75.652847   10.709802   27.744207
H   10.345345   89.185982    7.955853
H   25.044209   94.762863   43.215839
H   10.139725   11.984039   72.068840
H    6.620565   30.486837   95.901009
