100
TIME:    0.091, STEP:    91
H   11.168681   13.676074   99.062698
H   98.738853    9.678631   83.740784
H   81.327942   80.450844   22.271378
H   81.491882   28.901621   35.175110
H   94.355972   80.051575   63.237892
H   26.605221    1.114609   87.757500
H   48.200489   67.483589   97.568802
H   12.733877   96.475220   99.838036
H   51.391045   77.544067   94.358543
H   72.353722   17.693783   11.252169
H   91.790436   69.904114   30.984211
H   52.368687   28.251854   86.451881
H   37.473907   56.201782   16.084484
H   50.576267    4.796693   64.166466
H   81.609825   61.892715   46.398762
H   97.863586    3.778264   25.486225
H   16.749823   88.015083   81.640144
H    3.089402   90.275192   96.391403
H   46.681313   82.171127   68.155441
H   90.186104    3.624289   22.396219
H   58.876480   47.158554   54.771355
H   71.073463   44.220047   11.506794
H   84.529045   93.882118   29.747440
H   10.586689   37.773167    0.315641
H   26.328070   78.956108   37.230240
H   46.237217   24.902462   80.641197
H   54.232388   38.694469    1.772132
H   24.862305   60.686749   69.784103
H   13.149835   57.348110   52.870422
H    4.483392   88.587418   90.623192
H   19.681429   30.202692    2.211059
H   71.503174   49.995941   90.839775
H   76.768372   61.824181    5.994954
H   81.947044   65.383087   67.917702
H   78.509880   52.041306   30.269806
H   80.467125   91.634331   20.331213
H   88.528038    1.201625   15.635061
H   60.227165   57.288685   28.863100
H   46.630032   78.565407   33.404869
H   54.621632    3.663635   45.194031
H   29.022823   59.301296   44.482128
H   23.442612   15.940647    7.075654
H   12.025552   64.045639    8.046612
H   73.548645   14.296891   89.629044
H   48.761444   28.301506   63.894707
H   76.789223   64.914848   83.675148
H   37.040943   30.649578   28.400824
H   56.244274   96.318909   74.208511
H   67.687309   24.912678   40.844353
H   27.798346   32.134472   77.299820
H   43.533047   60.859375   54.384388
H    9.555783   55.295441   68.089096
H   10.767031   22.536377   97.584419
H   74.577469    5.717526   35.831318
H   33.515152   66.483261    1.178358
H   93.680099   12.436710   89.528946
H    2.021675   86.921043   64.642296
H   19.283819   68.292702   11.210999
H   97.454765   42.613998    4.496932
H   53.017174   34.782501   61.013321
H   65.441086   74.337997    7.301335
H   95.681366   27.098343   91.236740
H   80.405876    0.947577   27.315155
H   49.288597   42.289497   24.670134
H   35.933487   53.576839    4.035470
H   95.755226   37.749287   51.566494
H   80.267326   51.507519   71.455734
H   74.079735   22.741737   70.552925
H   61.439484   43.247643   54.526173
H   32.230286   52.721581    1.539406
H   19.143152   89.212624   61.056004
H   66.462669   48.505424   63.285427
H    1.057909   13.806011   59.416286
H   28.187981   43.621418   97.800209
H   66.557663   28.773180    8.296168
H   27.809195   13.404413   89.806625
H   75.217743   18.656879   92.642151
H   36.255676   44.769932   19.465538
H   65.916328   53.233433   18.703136
H   95.062637    3.997710   13.081358
H   12.662882   30.222441   85.427658
H   48.151936   44.821854   79.171204
H   23.553848    8.776242   38.567078
H   56.430710   19.948582   55.118355
H   47.899956   43.193222   38.930763
H   49.203983   12.391868   48.104130
H   73.232399   96.736473   27.882427
H   57.420090   98.008507   94.792198
H   57.571724   89.105782   27.456493
H   58.289314    5.542873   27.464926
H   27.746675   78.344589   35.383495
H   85.019707    2.350785   35.258804
H   91.123070   30.358137   25.954863
H   56.024033   18.752016   32.954662
H   55.018421   41.578754   18.178406
H    1.437791   92.138115   62.748650
H   55.379082   72.902718   31.955406
H    7.199492   17.012482   54.579170
H    4.377043   37.242558   37.429028
H   44.892925   76.365395   88.921249
