100
TIME:    2.499, STEP:  2499
H   48.324860   92.850365   96.858109
H   31.756065   40.236710   35.636097
H   22.710356   53.691895   94.002281
H   81.896057   29.692190    3.183716
H   72.787735   73.063385   97.947357
H   89.267220   98.500740   26.229940
H   21.998238   30.082024   85.877907
H   23.469826    4.797903   78.744438
H   92.197746   46.024780   42.784115
H    6.550268   52.265297    5.546381
H   67.804138   66.795227   99.033493
H   60.462898   48.952545   15.047564
H   84.300728   10.514482   76.748253
H   31.345314   97.373238   47.415752
H   10.897060   46.806274   30.647173
H    1.044348   93.157318   25.602991
H   23.151566   47.259865    0.881471
H   54.547249   73.174217   12.908833
H   84.187599   83.189545   95.020432
H   25.191673   52.743900   86.476204
H   15.982422    7.433413   89.416183
H    1.961914   47.401443    6.465319
H   52.378777   74.298012   60.851105
H   86.857315   66.653290   21.476021
H   40.204704   87.980316   54.999779
H   35.200405   53.145359   54.939850
H   46.587563   38.596668   49.556316
H   21.683828   73.084587   49.376469
H   65.509094   75.820900   39.042534
H   96.816795   28.990005   82.052147
H   14.406892   46.144878   11.666677
H   23.545418   83.467049   67.919121
H   46.384167   85.643852   22.926611
H   83.689583   44.704269   66.472137
H   18.653217   70.014862   76.899544
H   89.832443   80.794426   12.049367
H   19.485962   13.016920    5.376781
H   60.700935   13.215260   98.789848
H   39.589790   26.966887    2.140922
H   27.815897   78.235619   34.650082
H   64.460579   41.929653    1.220150
H    7.025319   24.014030   20.206373
H   32.766186   78.485703   81.978508
H   19.781027   54.655228   25.073286
H   39.885830   33.293095   69.957130
H   45.847034   10.581379   93.316841
H   61.255428   60.741913   49.446152
H   56.372875   21.112875   23.201851
H   38.077492   25.482395   44.788574
H   78.296623   68.783379    8.882076
H   43.353962   28.381517   79.765900
H   26.578920   31.850285   10.006374
H   60.718880   36.498779   57.732780
H   18.823200   66.437065   42.089813
H   41.815300   77.581253   21.610731
H   96.693039    9.905621    7.554947
H   54.676380   17.439720   93.663048
H   39.975922   40.888153   49.187698
H   87.367851   44.358028   19.633276
H   94.111176   19.869078   92.533089
H   17.339361   62.354954   19.554546
H   10.219109    4.682693   82.282974
H   43.738621   36.740654   62.117111
H   14.640795   55.388435   59.295788
H   31.511021   61.254101   28.287855
H   47.827644   18.040199   93.945732
H   87.068764   34.759960   87.713516
H    7.742760   60.457764   85.669250
H   81.452354   70.224129    3.498607
H   81.013245   73.836494   96.470947
H   42.678551   25.367907   32.172764
H   67.912231   68.588120   39.586815
H   44.052536   94.696678   97.670158
H   75.195885   91.237671   54.685555
H   82.657982   32.200016   90.838730
H   84.736031   67.736443   27.778946
H   93.847778    9.949808   35.246021
H   49.387890   87.317329   52.451527
H   81.348404   46.178379   45.560982
H   76.969643   72.854294    5.630155
H   59.785664   55.134960   29.347675
H   28.826286   60.547928   77.812477
H   75.913437   48.968781   67.917297
H   22.078594   26.004244   35.173767
H   30.649445   92.569901    5.502450
H   93.774780    0.845975   15.321527
H   34.057289   21.655273   42.705338
H   96.184128    5.218534   69.757362
H    7.543470   55.031654    7.754866
H   45.393581    6.458183   13.551667
H   26.292023    8.371037   86.236038
H   63.191692   83.448540   81.139503
H   45.624317    2.512901   12.244490
H   88.765450   64.817085   95.313652
H   13.384308   25.884293   73.511314
H    0.328708   97.049141   38.372482
H   64.243454   11.092917   93.469551
H   16.040586   37.515167   16.050159
H   89.666985   47.622501   35.720703
H   94.437637   14.514439   56.996368
