100
TIME:    6.593, STEP:  6593
H   71.464676   17.410971   93.109940
H   18.393093   62.130589   93.814919
H   93.095139   48.230492   45.951519
H   82.583221   61.018890   78.778687
H   36.118149    1.215441   86.942520
H   25.779423   94.065407   31.672798
H    7.431789    6.527731    6.034317
H    1.689498   58.979237    2.845782
H   91.559349   52.403351   85.081169
H   94.681160   11.050049   65.860359
H   86.990234   31.526037    4.678734
H    4.202713   54.163593   23.631866
H   23.353775   62.898731   69.907890
H   28.634590   84.754402   58.971378
H   60.684578   81.113579   33.845158
H   36.434280   35.081215   85.764160
H   93.937172   18.047123   73.575142
H   42.055523   74.023727   70.976601
H   47.952824   54.939423   10.707805
H   14.891617   65.799599   65.214714
H   73.038757   99.862579   78.296486
H   94.457672   52.836288   57.823425
H   97.716148   41.001778   43.717621
H    6.472832   15.699678   17.419638
H   93.781441   63.303246   85.230690
H   16.491709   31.753868   70.440269
H   93.556999   68.415665   30.782873
H   76.243057   64.178658   84.702591
H   54.529427   47.260326   45.516968
H   53.797733   27.663292    7.513491
H   75.532646   13.262994   87.761833
H   82.043365   70.351669   88.917046
H   34.758923   86.107399   91.746460
H   56.671928   69.513626   93.999405
H   16.874771   60.487434   26.174395
H   45.755627    1.820425   98.698036
H   12.153836   63.085571   27.967810
H   91.492180   38.298512   87.691429
H   66.781647   37.765190    5.401923
H   42.206432   94.968399   56.758862
H   84.667084   82.404564   97.673927
H   44.591904   67.457596   16.544746
H   68.026642    3.037340   77.692924
H   58.357059   23.305990   25.364565
H   84.761604   71.764359   20.291170
H   93.021660   88.668228    9.946009
H   93.242477   83.387405   88.751015
H   56.591518   63.275742   76.515411
H   57.747429   86.417824   81.477219
H   64.160400   31.082880   22.549025
H   43.048885   33.132309   22.926914
H   25.544418   51.958755   41.246895
H   45.631695   60.237183   19.957094
H   24.013901   99.629120   22.746849
H   15.850414   36.383835   56.426479
H    1.807333    5.598527   68.185516
H   14.220216   99.307945   83.036552
H   35.126862   54.260155   43.735580
H   10.253509   17.340946    5.338674
H   23.949181   34.548206   76.089989
H   75.592003   71.965347    0.354628
H   64.919472   66.575363   97.040451
H   21.658812   57.388710   81.368652
H   95.768845   77.677963   48.141460
H   94.009750   34.272015    9.546203
H   96.329193   14.515400   36.013458
H   58.599869   76.298096   85.371780
H   24.942314   94.597450   81.386124
H   85.496284   76.055405   46.731937
H   63.954567   79.751396   87.850159
H   12.674551   46.813690   83.061989
H   30.344423   32.716293   39.330444
H   77.115082   92.190369   92.702454
H   85.071297   32.148762   11.420137
H   80.045403   38.040913    1.191711
H   81.520866   30.121834   52.303421
H   65.567963   55.160618    7.669452
H   41.731457   19.619757   78.546959
H   77.670662   34.153004   91.238777
H   76.198257   49.867989   52.928307
H   39.887543   97.489273   74.037338
H   36.030502   87.227386   35.434269
H   34.897285   17.376257   57.828209
H    3.737985   76.336327   61.247448
H   31.305372   36.489433    8.634956
H   99.549911   51.227249   99.620987
H    7.486353   23.987984   37.923119
H   62.062584   77.495911   27.218681
H   92.505722   27.084208   74.268562
H   83.429123   38.022572   59.898720
H   93.835350   29.435268   72.693893
H   66.114136   91.336273   59.145905
H    8.077525   25.341816   28.851389
H   84.454811   13.162528   71.354874
H   42.603844   59.169769   67.586365
H   38.476379   35.380585   26.912109
H   39.280693   46.038345   58.019943
H   25.551310   12.681241   46.526382
H   94.637901   65.272377   92.803810
H   48.726887    9.448273   62.616840
