100
TIME:    8.610, STEP:  8610
H   35.062492   32.442894   91.263321
H   62.689102   71.428482   20.992645
H   27.768908   93.342270   22.271797
H   82.921768   77.918083   68.220650
H   18.046122   62.886723   32.251831
H   94.499268   91.880241   31.422806
H    1.720815   42.726898   63.766376
H   43.157272   33.476246   17.651688
H   41.977638   58.476288   58.119511
H   39.590370   40.011845   44.837044
H   99.373810   12.684474   10.391088
H   27.221329   55.265362   80.060066
H   94.718430   40.834724   69.468369
H   28.765165   78.537453   12.464291
H   85.183052    0.945192   36.845650
H   55.334045   58.666893   18.335583
H   31.742134   51.454441   57.190620
H   85.181900   75.876427    1.062421
H   79.368256   39.553997   16.970646
H   60.544666   22.971167    2.541452
H   53.347115   99.063873   23.554426
H   87.829430   55.513885   86.057266
H   70.786293   24.601122   86.007584
H   19.064405   39.828827   67.621628
H   21.641312    3.343361    0.126687
H    7.010082   72.280685   80.643127
H   19.628653   84.569778   70.805710
H    6.055372   58.325397   51.374611
H   98.386620   30.258249   50.172325
H   31.137924   77.741806   67.858917
H   54.914753   94.131355   28.183281
H    9.397955   14.628105    2.193259
H   76.834244   38.533363   73.453751
H   41.895554   84.667633    9.026251
H   66.676582    7.772151   48.892666
H   21.090006   59.804123   92.357979
H    5.610403   89.217537   86.899742
H    8.125822    1.382983   30.025009
H   81.641533   93.821251    9.939583
H   52.227165    6.143538   15.451066
H   46.818680   51.610695   45.192348
H   74.609955   75.367279   19.516998
H   85.384857   15.136616   23.382763
H   29.566593   57.165024   22.574955
H    9.802429   92.190453   92.891777
H   66.984337   27.134346   18.140379
H    9.006143   93.078682    8.114536
H   56.713131   84.050201    1.315560
H   16.710373   19.370331    1.016435
H    6.507742   61.783146   81.521782
H   42.910389   38.403908   44.190521
H   23.575064   64.795807    8.843192
H   87.464363   71.932434    2.816664
H   77.302368   66.728531   11.752063
H   55.254036   13.143796   73.576050
H    4.319504    3.476839   99.522064
H   42.088013   41.108681   74.870064
H   84.937683   63.778999   91.780418
H   69.329002    2.571107   50.496674
H   90.848000   89.581039   18.721703
H    2.825576   78.165649   43.092236
H   93.332176   47.801407    5.778675
H   58.594639   19.752031   43.056915
H   34.272823   88.665344   93.376541
H   74.070084   73.178314   97.380325
H   72.423042   14.244628   55.274754
H   96.771622   46.031429   82.752548
H   85.614059    9.952153   77.810394
H   86.023193   31.126640   20.228012
H    4.889486   81.101944   83.581940
H   48.623005    9.575404   58.871284
H   64.253601   65.714256   87.155441
H   45.603378   92.425591   40.990154
H   40.668209    4.493484   91.577126
H   77.223724   40.992985   54.117603
H   29.202784   59.394341   16.585932
H   48.754715   80.583252   43.442474
H   36.489964   87.738365   89.944397
H   74.393044   28.228436   13.743834
H   77.283043   39.992363   79.162071
H   79.370338   18.356760   94.590881
H   87.383652    0.307917   66.690407
H   62.477257   51.107822   49.916561
H   42.503319   48.935768   77.026421
H   33.095383   10.314199   13.110603
H   53.134624   25.312721   39.687836
H   42.197285   77.335014   34.101295
H   94.501518   16.093052    6.305569
H   34.367924   14.781496   57.772102
H    5.098685   55.039124   32.004234
H   76.379356   38.345409   15.289573
H   15.351709   43.033386   97.584404
H   37.371006   85.859184   84.829102
H   79.388290   35.531605    7.357698
H    7.728188   78.498581   13.935331
H    5.072307   55.732239   22.731453
H   79.181175   61.788963   42.019920
H   21.658022   12.483464    6.034334
H   98.552666   73.982262   23.859509
H   74.010696   57.684971   68.312302
