100
TIME:    3.628, STEP:  3628
H   71.975494   89.315308   95.824478
H    0.350104    1.448320    6.853043
H   42.116768   34.916344   80.754585
H   82.085556   83.176079   41.300243
H   62.675385   63.557705   67.334671
H   71.764412   97.277611   38.038979
H   62.825115    6.316712   74.167259
H   34.732651    2.470789   75.083549
H   64.444771   37.476059   71.718300
H   75.697319   68.476067   49.759857
H   62.787308   12.222855   90.282173
H   17.369125    5.543605   34.683525
H   12.485759   42.208435   64.534386
H   75.443748   93.893349   33.332638
H   24.631424   45.959518   76.378639
H   55.650665   94.410820   31.886080
H   32.365059   21.935139    3.659505
H   78.668663   18.271217   73.767273
H    1.776021   30.552423   54.498081
H   94.775627   28.771708   63.343742
H   48.986053   95.037964   58.770515
H   10.200241   48.900208   10.320526
H   37.305000   65.115929   28.549694
H   81.960976   80.193848   37.626781
H   99.826813   98.439926   63.333412
H   30.021994   19.507704   49.117981
H   49.232777   91.665115   71.957191
H   26.422052   25.782471   86.693901
H   90.057816   78.252640   85.675209
H   40.106247    1.046387   71.804260
H   58.841686   47.384968   22.343132
H   94.831459   52.271881   63.401924
H   25.908537    3.041004   24.635847
H   31.393745   41.238136   18.909100
H   90.588272   84.671043   45.647484
H   87.999626   69.484650    8.163617
H   27.771744   71.670395   94.337639
H   14.041047   92.554756   78.458931
H   91.932861    2.370790   92.732414
H   21.476727   72.542679   23.477377
H   87.304031   80.668655   27.819807
H    5.557187   74.685944   73.247879
H   42.490925   85.255981   63.526653
H   47.686371   73.574921   35.460724
H   41.953396   88.749329   66.568542
H   31.281460   32.115345   97.899269
H   70.078415   22.140995   60.290657
H   56.433170   32.737183   93.058037
H   71.077988   31.978531   99.750519
H    1.967464   85.958870   29.917324
H   43.267826   19.383595   91.669876
H   81.447037   27.087620   35.890736
H   84.131813   43.045105   92.160652
H   92.678551   48.013741   91.910797
H   51.926712   76.534607   31.204248
H   98.105667    8.718069   69.121124
H   26.251474   84.862144    1.040338
H   55.907707   34.268127   20.106468
H   76.408943   92.060074   32.959309
H   19.608788    6.647383   60.421638
H   88.557381    9.854157   31.528400
H   70.149803   94.173172   31.198875
H   20.364809   59.715019   84.687614
H   92.167595   61.529922   28.640034
H   76.325096   71.082466   33.429371
H   78.471443   61.914192   60.699478
H   96.486832   73.790283   42.222698
H   29.755135   25.026773   39.641979
H   37.721581   89.101395   32.690777
H    3.890111   30.620039   94.093597
H    6.826330   48.550941   18.627846
H   74.821335   31.119019   22.246513
H   70.439041   38.850063   68.728508
H   50.346889   19.791988   87.591026
H   37.092037   33.810757   76.424843
H   11.423932   40.093552   51.810436
H   96.353554   12.095322   55.212315
H    2.430369   13.494081   14.799894
H   35.488281   42.862148   58.162659
H   21.601509   11.364586    8.365786
H   81.872543   66.814987   96.826340
H   13.536927   67.921158   83.406128
H   47.342541   67.815308   75.449005
H   99.751266   22.614883   32.055099
H   75.675644   21.950588   96.058609
H   67.796204   42.317192   93.722412
H    9.460653   39.567772   96.540253
H   14.355394   14.827696   58.012825
H   30.975994   92.171379   98.518440
H   45.574886   60.011787   53.908157
H   72.495300   69.331810   10.078530
H   46.729912   68.350151    2.655892
H   18.016006   36.375320   99.563255
H   97.887154   33.297363   71.434990
H   93.863380   24.755322   99.455437
H   93.579483   52.465218   80.057915
H   74.628876   75.884148   28.540106
H   20.183722   47.127930   97.984566
H   35.883751   52.489178   41.154221
H   64.558449   85.532967   48.243454
