100
TIME:    0.955, STEP:   955
H   52.739418   34.442879   98.271683
H   74.705162   56.524960   38.241299
H   96.172668   42.610195   12.126602
H   81.636902   93.303246   87.816521
H   86.617203   49.304985   39.810646
H   13.207394    0.174266   73.323021
H    2.919703   25.823561   65.135017
H   44.825180   71.220840   20.508736
H   30.152275   94.473938   39.973305
H   48.741905   30.096249   45.087860
H   11.423248    4.669102   47.758713
H   19.389927   71.559959   24.950796
H   82.514450    3.928452   30.209944
H    7.795822    2.132783   29.916027
H   92.117149   84.720154    4.865561
H   63.125778   28.205563   53.767075
H   47.285957   45.152664   60.305626
H   21.552071   48.259079   66.438278
H   60.135170   18.415995   13.676523
H   66.798409   85.509369   81.340065
H    7.605491   61.145012   31.324238
H   53.919483   45.360428   37.939137
H   72.993401   86.855263    5.025639
H   30.311707   48.135471   36.148201
H   95.428337   10.435818   43.608727
H   42.280056   99.154419   99.661377
H   79.728500    2.777949   18.917097
H   51.960281    1.015390   98.339767
H   31.936707   35.736729   12.029263
H   37.611599   67.203629   59.308254
H   53.668736    7.682914   33.840965
H   26.056311   26.127045   10.854912
H   37.626614   98.610420   83.830894
H   18.453133   86.202736   31.517843
H   57.033806   86.729378   82.881302
H   55.588623   59.505016   17.358313
H   71.395256   69.561867   83.715645
H   24.519402   41.474964   89.833427
H    7.786284   60.121559   50.595245
H   73.242455   22.779081   13.171106
H   69.976746   88.950157   64.843918
H   45.791222   54.720184   47.667576
H   19.466810   69.226791   70.452888
H   18.376120   28.775774   74.108284
H   73.815620   94.212204   37.830261
H   65.754555   81.157036   87.063332
H   46.163990   77.258301   35.783638
H   56.290417    5.216054   27.667891
H   92.947075   53.355339    6.377837
H   45.919193   45.285107   16.871368
H   43.471760   77.444313   63.486240
H   51.543770   75.122696   11.367157
H   28.689646   27.546143   47.405479
H   54.574848   91.622246   73.958267
H   64.733490   42.225368    8.509926
H   94.761154   11.528286   60.116348
H   56.793335   61.990868   46.815941
H   54.947205   86.699501   88.956253
H   65.594597   79.119370   38.167477
H   95.999283    1.191321   36.447105
H   19.942793   34.159302   39.936073
H   65.016327   19.056351   52.145386
H   39.009979   42.030052   68.041359
H    8.616968   46.989449    1.209929
H   70.229408   84.570030   84.498711
H   42.678078   94.797279    2.652833
H   10.946989   81.378784   13.169544
H   14.397561   72.154465   11.857123
H    4.498062   81.166122    0.335466
H   49.731506   96.176414   99.722168
H   91.706017   30.423304   50.693699
H   95.223343   19.831108   26.541842
H   44.724365   71.066933   37.261257
H    9.171239   88.945358   46.450111
H    8.216994   30.002550   73.793266
H   48.237171   68.780418   31.670624
H   53.663372   43.773308    7.932474
H   76.847961   88.275780   67.182648
H    7.327019   50.704929   28.337048
H   52.690567   56.944160   38.647003
H   29.570515   39.161572   37.066235
H   12.977139   50.464432    6.920835
H   78.221840   23.196623   20.858768
H   15.864611   93.882179   76.201363
H    5.828444   89.147934   55.175896
H   29.312000   44.133869    8.101368
H   30.937017   33.916649   69.081161
H   71.328781   28.834343   85.814171
H   75.501411   40.998848   20.386791
H   81.902206   69.987671   58.353603
H   63.105076   24.999434   53.629589
H   48.947285   67.331215   51.718521
H   46.558205   56.244331   92.795982
H   39.532410   71.161659   91.209450
H   40.081409   64.187592   38.030602
H   72.800659   58.018974   18.122185
H   86.799179   22.485716   82.266006
H   10.371587   24.368927   40.756172
H   63.218040   40.966923   65.054420
H   98.550156   54.174488    5.705544
