100
TIME:    0.564, STEP:   564
H   79.181557   70.299660   98.629654
H   85.581520   35.324116   13.577159
H   89.454742   14.480515   16.717583
H   81.571274    9.412817    9.247924
H   90.119354   17.964607   50.412560
H   19.270531    0.599805   34.600208
H   23.411678   99.420616   34.558308
H   75.557007   37.394909   56.410263
H   39.763802   32.067184   64.586739
H   59.427345   24.483559   29.775644
H   47.793121   88.936417   85.421959
H   34.314342   51.961037   52.782677
H    7.386918   27.584763   69.071159
H   27.155781    3.338326    0.159690
H   87.362099   19.645094   23.660982
H   78.846680   62.406727   86.223129
H   78.721794   19.295212   24.705698
H   13.196677   67.273315   79.993454
H   54.046677    2.012102   93.077148
H   77.382423   93.706909   54.665245
H   30.807983    0.068638   41.935196
H   16.427967   44.844353   71.232796
H   78.213814   90.035240   16.212997
H   66.639816   43.446049   65.188492
H    9.412271   41.445072   40.723465
H   44.072895   10.804498   36.309746
H   13.444033   19.031834   11.158072
H   84.952202   82.764801   85.417007
H   23.434891    0.262805   30.511017
H   22.619505   76.880783   28.224602
H   38.287907   72.619392   64.781609
H    1.368735   36.928825   47.051765
H   10.084740   27.216963   48.606529
H    1.932129   22.035339   47.990440
H   66.752724   16.286270   59.070869
H   21.592834   28.790934   18.703688
H   33.894199   83.880714   52.906261
H   40.678818   48.631405   62.240002
H   25.364506   68.468254   88.069931
H   10.071297   59.384243   82.408806
H   96.699295   75.532204   55.629414
H   80.932060   37.170647   29.297689
H   16.098898   66.882080   42.211266
H   43.343796   22.223410   35.876961
H    7.733025    9.639403    4.370134
H   70.748253   73.806694   85.530022
H   42.035389   56.166721   32.442574
H   56.269535    1.190259    3.475071
H   81.515862   85.738815   21.975401
H   37.718670   39.333836   44.217384
H   43.501591   15.192961   59.363605
H   32.541466   11.403625   37.036674
H   20.578615   25.278992   70.114967
H   63.628536   98.000099   56.704060
H   95.859085    7.947690    5.191980
H   94.271927   11.939207   73.426910
H   32.006813   73.272926    9.628572
H   84.062195   23.624168   99.027176
H   34.758209   62.598999   68.185928
H   21.800888   71.139526   47.568077
H   95.277847   52.341255   70.420929
H   78.893677   22.695724   69.837128
H   12.488297   68.692940   94.865334
H   81.768562   44.862503   11.826757
H   54.709572   15.798090   48.085770
H   66.697945   14.234974   79.533943
H   42.318199   67.859406   94.291611
H   41.406532   49.793198   93.165062
H   85.011925    9.260872   24.859020
H   41.811394   76.511864    0.544757
H    4.122040   57.029423   55.383121
H   27.462973   32.807564   97.914619
H   70.217880   90.409309   47.287434
H   17.776871   13.688255   69.688408
H   89.364670   29.446203   44.153248
H   38.992565   43.720024   57.978542
H   18.162159   77.661247    1.014002
H   58.478073   13.841785   45.588474
H   88.586205   51.850437   23.977257
H   71.865891   78.238472   72.332092
H   21.918880   35.116497   13.697775
H   83.640724   47.910904   39.617584
H   53.481335   16.671106   83.618134
H   88.967621   60.423801   11.914955
H   24.867682   13.604611   93.079079
H   38.311993   29.770508   80.949059
H    4.823019   62.345528   50.436825
H   65.034454   60.138771   89.877144
H   67.387398   62.769463   23.586159
H   16.470985   86.078476   44.374828
H   47.103764    3.886663   45.372387
H   20.017244   37.923882   44.269737
H   21.471016   44.529724   62.547417
H    1.739835   47.443985   64.844872
H   46.841099   99.209106   29.046017
H   40.505692   73.459465   38.317726
H   17.834810    0.047386    4.752678
H    8.935973   21.039795   47.011719
H   81.844475   39.281475   97.808784
H   74.267776   64.218498   43.364975
