100
TIME:    6.575, STEP:  6575
H   72.681961   19.061598   93.126419
H   18.890156   61.155140   92.680031
H   92.785599   46.935478   46.162868
H   82.580200   61.760468   79.765259
H   36.279373   99.772675   87.430588
H   26.058613   94.084908   29.890198
H    8.375148    5.312248    4.626677
H    3.104263   57.422062    4.498504
H   92.001823   54.133972   86.214134
H   95.172798   10.791561   65.155586
H   88.664551   30.801764    6.412582
H    4.889771   53.261341   24.913078
H   24.502396   63.987339   71.696465
H   29.525787   84.809883   57.601521
H   60.465950   82.721428   34.710743
H   37.158005   36.655556   87.258301
H   95.384621   16.856617   71.936531
H   41.670589   74.899612   71.600624
H   47.672535   54.184250    9.759547
H   15.376526   66.181923   63.989189
H   74.106903    1.654572   78.785103
H   92.731995   52.812393   59.356293
H   97.956474   41.148170   44.232605
H    8.145294   15.484346   18.756468
H   94.425240   64.730713   85.097755
H   16.573763   32.286018   72.132988
H   95.109093   69.163834   30.425680
H   77.761917   63.338478   84.107681
H   54.138039   45.627209   46.367859
H   53.107517   28.108788    6.082573
H   74.824303   11.648931   89.185936
H   80.906830   70.849075   90.583397
H   33.490963   87.424385   90.124878
H   55.911400   71.163223   94.757736
H   17.322739   61.850288   25.079195
H   44.190899    0.410558   98.754616
H   10.427403   63.744751   26.549475
H   92.236229   38.627964   86.421135
H   67.541351   38.157402    7.146226
H   43.901760   96.653427   55.342587
H   85.897278   81.786858   97.249855
H   46.108841   67.387009   15.625810
H   67.871735    2.929356   76.392693
H   59.506367   23.003866   23.604624
H   86.323036   72.474625   18.750818
H   93.254021   88.324905    9.872881
H   93.101852   82.408524   88.578255
H   56.590557   63.090347   75.401672
H   57.221321   87.908669   82.195175
H   63.782551   30.808840   23.807577
H   43.050121   34.870071   22.737194
H   24.669426   53.629089   42.428474
H   45.258297   60.132812   21.002512
H   24.430695   99.922729   21.952606
H   17.283649   34.806335   56.273357
H    1.784914    5.617461   68.798279
H   13.079114   99.827324   81.324608
H   36.467194   55.960014   44.199203
H    8.833903   16.580280    6.720496
H   25.136940   33.164616   76.601952
H   74.456566   72.802505    1.758025
H   65.558327   66.742905   97.854813
H   20.436789   58.616982   82.602966
H   94.532883   77.579910   48.630215
H   93.295364   35.709713    7.869895
H   97.434967   15.410202   34.949158
H   60.044022   75.675720   84.502762
H   26.185692   93.568031   80.525620
H   84.599251   77.348770   47.860920
H   63.589958   78.846123   87.888062
H   13.246149   48.038391   83.277870
H   31.828608   33.313675   38.012497
H   78.288696   93.080811   93.163879
H   85.467628   33.287907   12.489588
H   79.177483   38.015232   99.827164
H   81.095421   28.968201   53.514526
H   63.933193   56.718616    7.350214
H   40.885784   20.796736   77.552971
H   76.807411   34.205875   91.038002
H   77.081009   50.848518   54.479027
H   39.535294   97.303055   72.961502
H   34.679871   87.110657   36.940083
H   33.758690   17.075232   56.113930
H    2.499619   74.796043   62.891415
H   32.181862   37.615395   10.379826
H   99.964096   50.566010   98.371017
H    6.284157   25.296730   37.064812
H   61.773094   78.936218   27.405312
H   92.132187   28.086367   74.415779
H   85.020493   38.763187   59.255333
H   93.098717   28.463322   72.313766
H   64.782318   89.982483   58.802994
H    6.923704   24.801701   27.459421
H   82.715126   12.070521   70.141159
H   42.915031   60.782150   67.172729
H   36.989655   36.091400   27.841827
H   40.709465   45.005356   59.055130
H   25.586054   11.790593   46.887695
H   95.495384   65.194649   94.311409
H   47.608891    9.910179   64.350868
