100
TIME:    2.698, STEP:  2698
H   34.867096   74.601006   96.675919
H   26.220528   51.026909   48.188984
H   26.130972   68.008987   91.667213
H   81.929459   21.492884   92.276306
H   71.005310   89.014114   92.551498
H   86.182137   98.285149   45.938114
H   11.568785   43.520050    1.439977
H    7.828819   22.013544   60.473530
H   87.305946   26.891800   30.257145
H    1.112658   55.122643   13.339496
H   49.293640   74.802475   79.864075
H   52.867096   58.927444    0.882977
H   71.641563   98.474457   56.969040
H   21.491875   96.759865   62.560291
H   13.317909   29.030737   21.081442
H   93.043091   75.752106    9.083677
H    7.150011   60.421066   18.997934
H   58.799866   63.496895    6.009148
H   87.287865   91.536880    5.504733
H   19.830734   48.518612    0.025063
H    4.173539   87.622772   84.014252
H   21.040237   47.665619   89.518677
H   49.721840   72.679558   55.157669
H   68.368073   69.039978    6.696084
H   33.087151   72.196594   56.467926
H   34.287937   47.216595   36.288155
H   29.426903   30.323881   53.505283
H    4.893000   82.373238   55.955044
H   69.836105   93.875923   29.635653
H    4.447251   24.064804   97.872307
H   22.237791   63.989384   95.921776
H   36.110451   77.967949   49.496681
H   60.402164   71.083839   40.854103
H   92.097649   26.467056   58.088364
H   13.706178   54.972046   89.018211
H    7.134710   96.426323   11.365396
H   38.572372    5.728563   21.057005
H   52.476578    9.572979   12.832514
H   31.189316   22.631525   82.856186
H    9.072348   59.606339   50.307789
H   50.861568   48.757221    5.909502
H   89.140282   32.945892   29.554995
H   34.480289   79.679047   96.353294
H    7.074023   57.990822   44.529922
H   22.624437   25.442226   86.985817
H   43.279675   14.377003   94.124550
H   62.811634   71.563995   51.357628
H   56.383503   23.161753   35.514854
H   43.893906    9.001797   36.849648
H   82.468773   71.810768   94.963654
H   43.338779    9.168829   81.864120
H   36.249744   13.384575   96.942284
H   64.846687   37.652649   46.174347
H   14.215313   63.190666   50.871368
H   25.972366   95.025940   23.299025
H   96.942032    9.696482    0.780518
H   67.291908   11.697415   12.589783
H   25.157806   22.094860   44.062088
H    3.063241   52.766094    4.355890
H   80.978317   35.165440   86.873055
H   29.893007   53.101223    4.039262
H    3.156971    2.830050   73.279755
H   57.237377   23.170046   48.465012
H   28.305799   56.470947   53.892338
H   39.410427   45.359547   46.820976
H   35.602699    8.147285    5.711983
H   71.102852   41.639149   97.320999
H   93.996315   71.838562   95.182602
H   91.369560   55.925255   91.018257
H   85.045715   83.844795   96.051910
H   36.359596   11.827516   29.785263
H   51.504150   61.983734   54.157455
H   31.077520   84.852348   92.568840
H   70.817253   78.645309   42.858391
H   92.253319   32.483929    5.924285
H   89.439568   80.489738   14.388790
H   11.915514   92.702042   38.765324
H   58.737270   74.305931   63.442135
H   90.892120   45.593853   47.782181
H   67.210335   62.016750   88.486160
H   63.679974   57.193707   41.241474
H   43.758270   61.847549   61.172462
H   88.502762   52.290710   86.871124
H   35.768650   43.032928   16.997284
H   20.959217   80.123291   86.211662
H   89.195740    8.155621   29.140652
H   47.348045    7.186356   52.194397
H   99.387634   89.286133   67.686470
H   11.673527   43.951469    6.126733
H   27.798771   98.270584   20.665295
H   34.435913   19.116447   90.438553
H   77.915756   98.412407   84.932091
H   58.392796    8.475470   27.640205
H    7.999163   76.887169    8.731343
H    9.943195    8.058525   78.084282
H   16.765366   89.190681   28.093933
H   48.447586   22.513027   82.024986
H   16.770864   39.209534   12.866005
H   80.187035   48.480312   19.051842
H    6.796219    9.402872   37.829987
