100
TIME:    6.885, STEP:  6885
H   51.717606   90.633492   92.842606
H   10.329632   77.952568   12.226146
H   98.116562   69.238487   42.522961
H   82.632233   48.988861   62.774120
H   33.502731   24.620451   79.024979
H   21.250340   93.749062   60.591640
H   92.127594   26.245594   28.869120
H   78.738869   84.241852   76.036461
H   84.381432   24.328827   66.701958
H   86.705696   15.243294   77.293343
H   59.829102   43.275364   76.550941
H   93.058533   68.800125    2.847702
H    4.720596   45.239094   40.893242
H   14.177320   83.854378   81.191795
H   64.231209   55.030693   19.803440
H   24.693169    9.541767   61.525879
H   70.456337   37.359776    0.157051
H   48.299999   59.814926   60.854248
H   52.499729   67.189423   26.090649
H    7.025314   59.599033   85.095451
H   55.711060   70.794464   70.370033
H   22.451996   53.223923   32.956909
H   93.817528   38.626961   35.363434
H   79.342598   19.192842   95.733185
H   83.337593   40.145439   87.387184
H   15.143902   23.130642   42.973923
H   68.378593   56.277283   36.577335
H   51.604897   77.808235   94.353348
H   60.878609   73.753120   31.713648
H   64.994568   20.436363   30.725883
H   87.023552   39.446869   64.659721
H    0.480491   62.283115   61.885124
H   55.328045   64.742958   18.052130
H   69.009392   42.753494   81.697586
H    9.607252   38.378914   43.940964
H   71.138985   24.691677   97.780190
H   40.160088   52.392212   50.976353
H   79.422050   32.954060    8.297637
H   54.455822   31.402746   77.104797
H   14.703747   67.633499   79.732468
H   64.710602   92.425133    4.553018
H   19.983810   68.602676   31.451958
H   70.539581    4.789011   98.785576
H   39.712742   28.207113   53.913864
H   59.432114   60.242992   45.278507
H   89.252251   94.237686   11.132303
H   95.523727   99.267044   91.553566
H   56.607845   66.283249   94.582733
H   66.282661   62.233173   69.830368
H   70.291260   35.527538    2.132207
H   43.028835    4.940901   26.004597
H   39.738132   24.862228   22.079048
H   51.689037   61.930298    2.998086
H   17.252579   94.866119   35.631546
H   92.600601   61.974380   58.910458
H    2.171018    5.291371   58.245148
H   32.730923   90.882469   10.808298
H   13.384585   26.684439   36.214584
H   33.282242   29.680637   82.922630
H    4.680756   56.993122   67.784813
H   94.011314   58.385704   77.586716
H   54.555824   63.857468   83.829697
H   41.483273   37.463417   61.345337
H   15.819881   79.268600   40.212780
H    5.599349   10.950359   36.739445
H   78.391083   99.999718   53.278778
H   35.172501   86.394409   99.469193
H    4.771654   11.297565   95.345413
H    0.048164   55.074142   28.417332
H   69.871544   94.436943   87.235291
H    3.401831   26.946320   79.559914
H    6.284587   23.015991   60.718040
H   58.076447   77.747818   85.217102
H   78.641914   13.668194   94.070770
H   94.124992   38.457508   23.327995
H   88.422539   48.837330   32.656601
H   92.087494   29.886417   12.847952
H   55.450146    0.526456   94.671654
H   91.674507   33.295307   94.495796
H   61.878067   33.961617   27.772179
H   45.601807    0.510264   91.489792
H   57.940750   89.121002   11.005669
H   53.367836   22.259558   85.635895
H   23.827019    1.323175   34.578655
H   17.087004   18.223839   80.328896
H   92.830917   61.954025   19.898682
H   26.988375    2.756922   51.846764
H   66.758751   54.129978   24.191124
H   98.565292   10.826782   71.880379
H   57.613018   26.008137   70.337234
H    5.785276   45.201469   78.860397
H   87.719177   13.297330   64.708961
H   26.795124   34.103687   51.432198
H   12.675694   30.877771   91.044022
H   37.555687   33.013367   74.296448
H   62.594360   23.850367   11.829863
H   16.103601   62.795731   41.226913
H   24.987680   27.129528   40.665085
H   80.727623   66.533302   68.347206
H   66.863625    1.955348   34.486622
