100
TIME:    2.169, STEP:  2169
H   70.641754   23.112869   97.160233
H   40.935600   22.344095   14.819790
H   17.037977   29.950089   97.874504
H   81.840668   43.287987   21.272503
H   75.743515   46.612431    6.894775
H   94.383186   98.858253   93.548882
H   39.293049    7.798087   60.071480
H   49.407173   76.247528    9.043007
H    0.309779   77.752838   63.557659
H   15.567411   47.526985   92.624565
H   98.499939   53.516880   30.820742
H   73.057144   32.411255   38.536797
H    5.292906   30.480019    9.548357
H   47.685188   98.390388   22.301693
H    6.882675   76.283508   46.511093
H   14.313751   22.020576   52.995865
H   49.683090   25.436440   70.835281
H   47.495171   89.222038   24.350521
H   79.046455   69.347229   77.633194
H   34.081673   59.750660   64.008247
H   35.565094   40.286877   98.374161
H   70.324493   46.963364   34.567871
H   56.784752   76.981880   70.292480
H   17.517952   62.695469   45.985832
H   52.007683   14.152969   52.565163
H   36.713543   62.976978   85.871574
H   75.044151   52.315617   43.007778
H   49.527542   57.681301   38.467274
H   58.333649   45.880409   54.642204
H   84.162834   37.157425   55.817715
H    1.424215   16.551172   37.778622
H    2.709261   92.586159   98.468895
H   23.138721    9.788185   93.197601
H   69.746559   74.946884   80.374878
H   26.857143   94.960236   56.804161
H   61.140728   54.871296   13.183591
H   87.834290   25.103140   79.374084
H   74.341225   19.255222   75.501122
H   53.520226   34.156555   34.119621
H   58.897076    9.128360    8.686171
H   87.014137   30.607401   93.445236
H   36.683838    9.202689    4.703243
H   29.923704   76.506790   58.141541
H   40.853447   49.123840   92.807419
H   68.509956   46.312122   41.718437
H   50.104465    4.287128   91.977425
H   58.674786   42.795746   46.276367
H   56.355251   17.715239    2.783373
H   28.432180   52.812031   57.953629
H   71.377983   63.762966   31.961834
H   43.379139   60.240639   76.286438
H   10.542429   62.473064   31.671185
H   53.873253   34.585327   76.898338
H   26.464420   71.819908   27.527822
H   68.087112   48.651539   18.811049
H   96.280136   10.252434   18.788925
H   33.756809   26.961662   62.277397
H   64.548676   72.052246   57.687454
H   61.340126   30.414862   44.968277
H   15.887810   94.503799    1.918963
H   96.522446   77.702583   45.282925
H   21.930191    7.754917   97.212936
H   21.354347   59.243858   84.756271
H   91.980591   53.593315   68.255089
H   18.412685   87.609650   97.555649
H   68.100166   34.445534   74.433556
H   13.545523   23.351305   71.781509
H   30.538246   41.585083   69.893341
H   65.006737   93.935829   24.196243
H   74.326233   57.238792   97.165833
H   53.157219   47.821129   36.133106
H   95.123535   79.540115   15.425310
H   65.568802   11.019749    6.131390
H   82.456932   12.120452   74.298439
H   66.746117   31.729929   65.822861
H   76.936195   46.585686   49.982784
H   63.887138   38.552429   29.409433
H   33.883892    8.894629   34.225895
H   65.522141   47.147694   41.877586
H   93.153419   90.825638   34.059822
H   53.327763   51.720959    9.625067
H    4.065008   58.392776    5.406698
H   55.035587   43.460052   36.486332
H   99.376900   97.765724   65.315674
H   46.717514   13.211252   37.492142
H    1.368565   88.725670   92.405083
H   12.017340   45.648956   26.969709
H   90.871780   31.639023   73.191505
H    0.694380   73.405830   10.454498
H   74.570297   20.036140    1.755476
H   12.787079   90.551453   79.267044
H   38.772518   58.633541   74.850288
H   24.450909   92.623825   86.714706
H   56.870663   44.798954   73.062218
H   19.090675   55.444611   65.928001
H   73.072083   10.080256   55.417313
H   90.437607   92.155113   12.448292
H   14.828965   34.705414   21.331036
H    5.387289   46.200001   63.362534
H   73.943558   22.990387   88.779816
