100
TIME:    6.394, STEP:  6394
H   84.922440   35.659721   93.292130
H   23.888397   51.346462   81.268105
H   89.673004   33.913399   48.288105
H   82.549820   69.217438   89.685791
H   37.900574   85.264725   92.338379
H   28.866024   94.280998   11.965160
H   17.861103   93.090584   90.472206
H   17.330505   41.763805   21.117641
H   96.451149   71.536331   97.606728
H    0.116508    8.192324   58.068699
H    5.500717   23.518789   23.847393
H   11.798515   44.188694   37.796684
H   36.052414   74.932518   89.681572
H   38.487770   85.367775   43.826839
H   58.267525   98.889244   43.414684
H   44.435455   52.486427    2.282789
H    9.939683    4.885097   55.459389
H   37.799870   83.707123   77.875526
H   44.854076   46.590569    0.224184
H   20.252556   70.026405   51.665855
H   84.847702   19.674152   83.698418
H   75.379349   52.572113   74.770126
H    0.373122   42.620232   49.411057
H   24.962833   13.319063   32.199047
H    0.898940   79.084000   83.761024
H   17.398863   37.637085   89.154213
H   10.716747   76.687088   26.833906
H   93.034897   54.890007   78.125534
H   50.202415   29.205421   54.924042
H   46.167011   32.588493   91.693619
H   67.701515   95.418266    3.506056
H   69.478333   75.850769    7.339416
H   20.741535    0.667383   73.818970
H   48.263863   87.750839    2.382999
H   21.827301   75.554543   14.066415
H   28.456846   86.234016   99.323555
H   93.066963   70.373169   12.287419
H   99.718056   41.940792   73.647621
H   75.180603   42.101311   24.685995
H   60.949223   13.598148   41.101154
H   98.267563   75.575478   92.985573
H   61.362488   66.677216    6.385411
H   66.314056    1.843528   63.318207
H   71.064133   19.965841    5.907616
H    2.024006   79.616745    3.261726
H   95.590538   84.872604    9.137541
H   91.687790   72.565323   86.841057
H   56.580891   61.226105   64.202408
H   51.931015    2.899682   89.414627
H   59.983639   28.053213   36.463264
H   43.062550   52.344238   20.829453
H   15.870897   70.424698   54.309914
H   41.503574   59.083313   31.514769
H   28.621788    2.876161   13.966052
H   31.695625   18.944271   54.733631
H    1.559479    5.807856   74.959946
H    1.604703    5.050233   64.110054
H   49.944977   73.053047   48.861191
H   94.558594    8.931682   20.615532
H   37.080521   19.251842   81.750023
H   63.039112   81.220596   15.869995
H   71.982368   68.427628    6.044530
H    8.148668   70.967934   95.014679
H   82.104599   76.593933   53.544910
H   86.111816   50.166569   91.014061
H    8.553635   24.408257   24.247023
H   74.565781   69.417389   75.764297
H   38.688545   83.216652   71.872772
H   75.579079   90.354279   59.213467
H   59.923615   69.743095   88.269196
H   18.994064   60.353439   85.448677
H   46.752224   39.320679   24.760181
H   90.090042    2.034378   97.803772
H   89.452965   44.742641   23.243505
H   70.450066   37.757000   86.106339
H   76.817329   17.367779   65.693054
H   47.494717   72.384422    4.140091
H   32.382076   32.631950   67.557869
H   68.126945   34.737530   89.019096
H   85.957565   60.708290   70.072380
H   35.993233   95.430527   62.143375
H   21.097963   85.936874   52.081875
H   22.309479   14.048476   38.875900
H   90.046623   59.307640   79.423698
H   40.994896   48.937561   27.925690
H    4.130154   43.916878   85.801880
H   94.195518   38.456902   28.434057
H   58.862114   93.419312   29.281982
H   88.376083   38.164055   75.896126
H    1.022663   46.210491   52.785721
H   85.691460   18.689857   68.491379
H   51.390148   76.369370   55.354836
H   95.321320   19.370541   13.462413
H   65.221626    1.089764   57.936584
H   46.044197   76.994431   63.013401
H   22.039810   43.239044   37.190659
H   55.076561   34.618073   69.464508
H   25.935427    2.834722   50.520897
H    4.117769   64.413048    9.472000
H   36.366817   14.554905   81.786369
