100
TIME:    0.844, STEP:   844
H   60.246010   44.622169   98.373306
H   77.792824   50.506306   31.239439
H   94.265533   34.624279   13.429924
H   81.618271   97.876305   93.900383
H   87.611420   40.407845   42.820396
H   14.928642    0.295070   62.330616
H    8.737108   18.327978   56.454670
H   53.549561   61.617626   30.700729
H   32.880867    5.146193   46.960770
H   51.775368   28.502876   40.740913
H   21.748199    0.202890   58.450356
H   23.626781   65.996071   32.851646
H   89.575592   10.644285   41.242096
H   13.291750    2.475021   21.468571
H   90.767250   94.635223   10.201431
H   67.588745   37.914845   62.980942
H   56.210197   37.812057   50.199165
H   19.180008   53.656982   70.286423
H   58.406723   13.759097    7.828933
H   69.803078   87.836548   73.767418
H   14.192383   72.195099   34.336624
H   43.276112   45.213921   47.390972
H   74.475410   87.758018    8.201586
H   40.624802   46.804203   44.392410
H   99.398430   19.238956   42.789810
H   42.789021    2.461831   10.065381
H   89.299744    7.392200   16.714407
H   61.325737   95.834259   94.671158
H   29.523148   25.666101   17.276001
H   33.355267   69.950851   50.483944
H   49.302311   97.728645   42.624626
H   19.047674   29.193535   21.130745
H   29.807648    6.731564   73.831139
H   13.763106   96.375252   36.194176
H   59.792885   95.120094   76.121643
H   45.937775   50.785717   17.740248
H   60.748753   73.626808   74.969246
H   29.106857   43.506588   81.999947
H   12.776630   62.491081   61.234383
H   83.697823   33.170559    4.437834
H   77.562943   85.140968   62.228230
H   55.767265   49.738091   42.452595
H   18.510702   68.561157   62.434959
H   25.463938   26.915640   63.254890
H   83.444450   98.592178   28.331163
H   67.172203   79.070366   86.628044
H   44.991932   71.270981   34.835152
H   56.284489    4.073213   20.799833
H   89.701897   62.548035   10.805871
H   43.591167   43.595615   24.634560
H   43.480228   88.160515   62.315876
H   46.149254   85.422241   18.654411
H   26.387026   26.902527   53.852646
H   57.145077   93.432838   69.060013
H   73.569656   32.494068    7.568003
H   94.622269   11.644941   63.895050
H   49.756752   65.193703   36.258949
H   63.212585   97.181969   91.815262
H   56.840424   74.429443   46.689457
H    3.324326   92.659912   39.604210
H   12.940599   39.320930   48.590164
H   68.955933   20.089523   57.168129
H   31.480553   49.599312   75.656349
H    0.994700   46.385635    4.223913
H   65.824028   93.434990   74.161903
H   49.497017    0.315436   96.089729
H   19.853022   77.540802    7.810176
H   22.065102   65.806381    6.550681
H   98.965782   89.141876    7.297335
H   47.483086   90.593895   99.955902
H   95.230659   37.976383   52.024967
H    4.375931   23.514961   18.414923
H   51.961655   76.557991   40.107563
H   11.614226   95.969238   53.047173
H    2.865355   29.844610   65.378838
H   45.612743   61.666496   39.139126
H   43.584858   53.393669    5.968388
H   71.632980   95.533394   61.052647
H    2.006286   51.030125   27.099358
H   58.134201   62.989914   48.209778
H   27.398312   38.013226   30.432011
H    4.648666   49.739517   16.203083
H   71.197960   21.344110   10.286648
H    8.228661   84.383766   86.340004
H   11.233377   96.090515   65.936134
H   31.866985   40.056225    0.393036
H   23.523581   41.987251   63.788265
H   69.541901   37.721169   86.967598
H   73.197945   47.179253   21.295052
H   91.715652   74.555649   54.385204
H   58.562504   19.005762   51.285473
H   40.734409   58.982841   49.603905
H   39.436089   52.918701   84.208794
H   28.803507   64.429100   83.724876
H   42.000401   74.129761   35.479851
H   63.632523   62.402336   23.855446
H   95.609940   16.115614   88.649658
H    9.964034   23.423828   42.532043
H   68.505852   40.488445   74.352974
H   91.656693   57.025875   16.396582
