100
TIME:    8.507, STEP:  8507
H   42.028069   41.888542   91.357620
H   65.533798   65.847534   14.498172
H   25.998438   85.931915   23.480793
H   82.904480   82.161552   73.866035
H   18.969076   54.630817   35.044662
H   96.096069   91.991829   21.222370
H    7.118959   35.771538   55.711643
H   51.252869   24.565744   27.109123
H   44.509575   68.379288   64.603302
H   42.403633   38.532917   40.804176
H    8.954605    8.540215   20.312555
H   31.152824   50.102474   87.391838
H    1.286406   47.068695   79.704559
H   33.864937   78.854927    4.625660
H   83.932014   10.145645   41.798721
H   59.475357   67.675621   26.885780
H   40.024757   44.642101   47.814125
H   82.980011   80.888435    4.632697
H   77.763596   35.232731   11.544505
H   63.319424   25.158518   95.528755
H   59.459282    9.318012   26.350008
H   77.954720   55.377151   94.828674
H   72.161491   25.438421   88.954437
H   28.634607   38.596649   75.270874
H   25.324879   11.512039   99.366066
H    7.495920   75.317123   90.335526
H   28.510469   88.850967   68.762558
H   14.746037   53.517704   47.969620
H   96.147011   20.913580   55.041313
H   27.188747   80.291031   59.670593
H   50.860668   84.894737   36.332314
H    2.894565   17.473682   11.728432
H   69.579483   46.069450   64.174698
H   37.543640   94.106995   13.365198
H   69.239952   15.570702   42.625690
H   12.136679   51.736031   92.681740
H   95.731255   92.989510   78.783714
H   12.382847    3.268036   22.756889
H   85.988731   96.065575   19.920773
H   61.928207   15.786233    7.347218
H   53.858124   48.076828   42.765713
H   83.290207   74.963364   14.258634
H   84.498444   14.518759   15.943329
H   36.143185   55.435417   12.504573
H   18.736897   96.253181   84.077934
H   68.313957   25.170170   17.721926
H    8.200866   87.477303    7.125463
H   56.706844   82.989334   94.942528
H   13.699867   27.900490    5.125296
H    4.345734   60.215420   88.723106
H   42.917461   48.347771   43.104507
H   18.568949   74.353043   15.604650
H   85.328484   71.335205    8.798777
H   79.688141   68.408630    7.207228
H   63.454933    4.117191   72.700638
H    4.191217    3.585185    3.028442
H   35.558571   44.080681   65.073936
H   92.607361   73.505974   94.433372
H   61.205120   98.218910   58.404457
H   97.645409   81.664612   21.651268
H   96.328262   82.956055   51.122608
H   96.987846   48.760117   10.439222
H   51.601559   26.780867   50.119934
H   27.199856   88.104263   96.172516
H   69.982208   81.404358   87.788513
H   78.750526   19.365013   49.184589
H    5.035586   42.470844   77.779831
H   92.728943    4.061262   72.886398
H   80.890167   38.527565   26.688301
H    2.797543   75.928055   83.800400
H   51.894405   16.583988   60.106606
H   72.735825   69.134178   79.605209
H   52.319061   97.520897   43.631321
H   42.935322   11.012264   97.697151
H   72.262009   40.841320   46.308048
H   26.767504   52.792603   23.516539
H   39.400223   89.497681   41.615425
H   31.651594   94.472908   84.255005
H   69.453331   28.530979   12.594364
H   82.334343   45.603172   88.035637
H   77.353905   17.291178   88.434708
H   79.654251   99.639648   75.307793
H   55.961960   49.385288   40.107075
H   35.417511   40.121925   86.434349
H   38.110535   16.757374   23.094994
H   55.505466   21.529354   32.535233
H   35.318150   84.823952   29.189873
H   92.844994   24.335205    7.373607
H   32.230473   20.516115   58.614510
H   14.205445   59.277092   28.322241
H   72.164177   32.784107   13.114402
H    7.730753   35.286697   95.621407
H   30.768482   82.769310   76.863953
H   69.433426   29.282703    0.412775
H    9.509251   87.724197   11.568615
H   96.564880   59.799683   28.051506
H   87.356926   55.877968   47.943489
H   21.856836    7.386991    8.102240
H    3.459297   73.537483   32.487110
H   67.612488   60.327709   78.234161
