100
TIME:    9.490, STEP:  9490
H   75.552155   51.743294   90.457657
H   38.384903   19.112629   76.480583
H   42.895252   56.652367   11.941853
H   83.069473   41.663200   19.982939
H   10.160685   33.422333    8.393534
H   80.856689   90.926872   18.572021
H   55.597927    2.147248   32.583538
H   73.991013    9.608109   36.853615
H   20.345558   73.867111    2.725098
H   15.552427   52.647343   79.292610
H   17.518341   48.091736   25.622408
H   93.633125   99.375465   17.420467
H   38.603928   87.571556   82.017288
H   85.193771   75.825050   79.433571
H   95.871529   22.339241   94.527122
H   19.950821   81.698776   45.288147
H   60.977669    9.661301   37.300491
H    4.005003   33.055382   70.554764
H   93.077972   76.471283   63.329899
H   36.838001    4.283117   62.455925
H    1.126200   11.458006   99.668701
H   72.195892   56.682098   11.117081
H   59.037025   17.447496   60.830582
H   37.299931   50.356171    2.263750
H   90.168198   33.556168    6.622543
H    2.859118   46.338303   97.830330
H   43.745850   47.989689   88.261765
H   31.803320   99.400833   80.461998
H   17.522274   10.099251    8.575096
H   64.881737   55.962021   37.815956
H   89.546638   73.041794   58.560501
H   64.961716   90.313782   20.727211
H   38.820435   74.148956   52.731102
H   79.076950    4.020869   71.952950
H   44.775948   41.143806    2.431181
H   97.587326   28.730516   89.591866
H   90.013519   56.990974   56.240192
H   71.751183   85.282661   92.124611
H   44.496891   74.646446   24.660706
H   69.340714   23.760735   84.688370
H   86.677536   81.806915   65.924767
H    0.448229   78.818207   64.440483
H   92.958099   20.416798   86.945366
H   73.381508   71.938637    8.615993
H   33.468964   57.478497   68.199051
H   55.629425   43.918041   21.715513
H   15.886178   40.938656   16.565504
H   56.766842   93.113922   55.764591
H   42.431198   46.487919   65.916199
H   24.978453   75.182915   19.991756
H   44.123432   53.541885   51.512802
H   66.343063   83.137741   51.076729
H    5.714159   77.034973   51.709015
H   56.921402   52.368843   50.583321
H   85.186684   90.262939   81.055298
H    5.415543    2.551165   69.564789
H   97.877609   15.716816   58.565437
H   19.410986   80.673531   69.114403
H   38.735485   39.756683   82.938316
H   32.776661   57.222134   93.692421
H   58.340382   37.242306   74.485710
H   62.099266   39.610489   65.964745
H   18.336357   59.702538   82.712677
H   94.700928   93.459045   69.488602
H    8.996520    2.891773   79.330849
H   18.363831   70.497612    7.307437
H   26.168316   76.454712   25.239773
H   24.826706   60.280769   19.879486
H   29.882257   67.895462   65.038025
H   22.761948   25.302805   81.715485
H   20.674538   49.698811   48.317085
H   91.788918   36.495506   51.658237
H   88.226318   48.895206   18.424847
H   21.298702   48.797405   39.289528
H   19.613539   42.288761   20.839636
H   50.009056   15.792342   57.371681
H   28.677540    4.415929   59.052216
H   77.829491   30.200523   38.547607
H   16.594290   25.643597   23.565836
H   34.126305   92.053535    3.349316
H   96.598122   27.460764   47.187798
H   53.417145    6.020578   93.070595
H   18.136602   65.824623   33.722797
H    3.046418   24.239231   96.653099
H   90.247482   55.262527   27.804640
H   32.878887   57.639297    0.797472
H    0.970489   13.351790   76.062965
H    8.653708   45.677528   97.183594
H   52.629642   65.784233   50.574837
H   27.295115   18.831238   63.458702
H   12.393072   85.862534   33.873558
H   80.462799    9.218374   14.350205
H   93.780914   12.261175   52.880852
H   63.162209   88.822861   68.649971
H   92.513260   99.672401   34.154671
H   77.756668   20.982328   77.277985
H    9.331031   12.290263   91.409195
H   19.959414   56.024395   88.364586
H   56.631279   77.782310   50.151257
H   28.671974   35.106236   83.538239
