100
TIME:    3.005, STEP:  3005
H   14.106579   46.447472   96.394852
H   17.680779   67.672577   67.554489
H   31.408003   90.096161   88.064873
H   81.980988    8.843702   75.449768
H   68.255539   13.621503   84.227234
H   81.422737   97.952553   76.341576
H   95.478828   64.251045   25.447853
H   83.699219   48.572025   32.284863
H   79.759300   97.374786   10.932470
H   92.722969   59.530708   25.362131
H   20.737244   87.155365   50.292240
H   41.148949   74.315857   79.030067
H   52.113525   79.900620   26.456673
H    6.291215   95.813606   85.921776
H   17.052586    1.608909    6.323908
H   80.699570   48.900848   83.599953
H   82.462868   80.727737   46.945354
H   65.359947   48.567558   95.365417
H   92.070686    4.415138   21.677835
H   11.560341   42.000202   20.926966
H   85.955765   57.060898   75.680618
H   50.472626   48.073166   63.374771
H   45.622948   70.182747   46.374329
H   39.844467   72.721954   83.896294
H   22.107861   47.848389   58.732857
H   32.880260   38.070210    7.513102
H    2.953909   17.562273   59.597408
H   78.988335   96.702965   66.103416
H   76.511444   21.729055   15.124403
H   16.218674   16.466629   22.277290
H   34.320377   91.519882   71.632912
H   55.494698   69.484413   21.076134
H   82.025970   48.621910   68.511086
H    5.069123   98.332527   45.154602
H    6.074552   31.765289    7.712890
H   33.827785   20.542933   10.310224
H   68.016792   94.485336   45.247494
H   39.788750    3.954195   34.495831
H   18.229790   15.943304   53.105255
H   80.155640   30.864954   74.462135
H   29.880854   59.290203   13.142426
H   61.548882   46.725197   43.978210
H   37.124660   81.520035   18.528221
H   87.469925   63.136688   74.546349
H   95.994347   13.330456   13.256789
H   39.318974   20.232563   95.370613
H   65.211227   88.259369   54.306488
H   56.399899   26.322584   54.510292
H   52.866966   83.575371   24.602865
H   88.905205   76.481163   73.490143
H   43.315357   79.529984   85.101074
H   51.169712   84.897812   76.789787
H   71.212852   39.432739   28.343235
H    7.106663   58.180649   64.418793
H    1.530176   21.934509   25.906904
H   97.326157    9.373840   90.329514
H   86.755791    2.838557   41.788017
H    2.298040   93.102158   36.154739
H   27.274818   65.737335   80.788216
H   60.718460   58.763348   78.141243
H   49.258644   38.825367   80.102036
H   92.261284   99.971970   59.389587
H   78.070442    2.226929   27.408615
H   49.387955   58.140953   45.556362
H   51.597019   20.839336   75.411568
H   16.743111   92.885475   23.863380
H   46.472023   52.251766   12.143432
H   72.789818   89.395874    9.858977
H    6.669826   33.866188   71.765175
H   91.266663   99.284737   95.405457
H   26.610611   90.939201   26.102116
H   26.191465   51.795059   76.634460
H   11.059702   69.665367   84.698967
H   64.062279   59.218323   24.612465
H    7.055479   32.921925   29.197769
H   96.695778    0.164430   93.731506
H   39.789478   66.094376   44.194599
H   73.160690   54.231930   80.395233
H    5.614600   44.692097   51.208855
H   52.154518   45.295612   62.037766
H   69.685562   60.369762   59.590458
H   66.793762   63.852493   35.501686
H    7.925222   57.415497   16.111149
H   56.888485   69.303314   88.956696
H    6.010324   60.921360   56.451363
H   82.131592   19.432259   50.459576
H   67.851875   84.864937   66.833298
H    4.328703   64.706833   64.491676
H   18.045151   26.858271    3.614990
H    0.655589   85.641312   31.639786
H   46.999603   35.693279   96.921829
H    0.630691   21.499163   90.782967
H   78.080978   17.681326   51.385704
H   37.672642   95.507851   29.430748
H    4.634730   80.560211   85.139061
H   42.122284   77.067329   12.236937
H   24.079468   40.131237   64.369301
H   17.897474   41.823456    7.953775
H   65.562187   49.803669   93.335976
H   25.863291    1.522036    8.257993
