100
TIME:    8.652, STEP:  8652
H   32.222160   28.591413   91.224869
H   61.529129   73.704208   23.640877
H   28.490847   96.363968   21.778809
H   82.928818   76.187737   65.918648
H   17.669771   66.253204   31.113132
H   93.848145   91.834740   35.582344
H   99.519585   45.563065   67.050835
H   39.856155   37.109653   13.795304
H   40.945198   54.438171   55.475605
H   38.443214   40.614902   46.481514
H   95.467072   14.374366    6.345439
H   25.618195   57.370617   77.070412
H   92.040237   38.292717   65.294388
H   26.685705   78.407997   15.660625
H   85.693184   97.193550   34.825951
H   53.645355   54.993431   14.849121
H   28.364754   54.232288   61.014046
H   86.079758   73.832695   99.606522
H   80.022583   41.316067   19.183247
H   59.413212   22.079237    5.400970
H   50.854774   94.882843   22.414480
H   91.856010   55.569641   82.480576
H   70.225533   24.259699   84.805954
H   15.161993   40.331268   64.502518
H   20.139275    0.012444    0.436717
H    6.811974   71.042526   76.690887
H   16.006941   82.824051   71.638840
H    2.511606   60.285816   52.763054
H   99.299858   34.068783   48.186913
H   32.748344   76.702316   71.197845
H   56.567875   97.897743   24.860374
H   12.049791   13.467731   98.305122
H   79.792496   35.460396   77.237442
H   43.670120   80.818573    7.256954
H   65.631325    4.592199   51.448132
H   24.740877   63.094025   92.225960
H    9.638722   87.679451   90.209190
H    6.389948    0.614320   32.988708
H   79.868889   92.906090    5.869583
H   48.271400    2.211566   18.755548
H   43.948227   53.051689   46.181850
H   71.070435   75.531982   21.661186
H   85.746307   15.388557   26.416317
H   26.884876   57.870300   26.681324
H    6.159269   90.533806   96.485771
H   66.442162   27.935272   18.311010
H    9.334508   95.362740    8.517883
H   56.715694   84.482788    3.914224
H   17.937958   15.892014   99.341064
H    7.389338   62.422413   78.585320
H   42.907505   34.349129   44.633362
H   25.616392   60.898426    6.086065
H   88.335304   72.175964    0.377357
H   76.329529   66.043442   13.605296
H   51.909981   16.824530   73.933014
H    4.371815    3.432659   98.092285
H   44.750504   39.896797   78.864601
H   81.810242   59.812660   90.698631
H   72.641655    4.345874   47.272141
H   88.076241   92.809097   17.527122
H    5.475009   76.212280   39.817715
H   91.841515   47.410477    3.878259
H   61.446186   16.885904   40.176849
H   37.157055   88.894135   92.236435
H   75.736984   69.824005    1.291584
H   69.842903   12.156756   57.758121
H   93.401932   47.483318   84.780258
H   82.712845   12.354291   79.818237
H   88.116272   28.108788   17.593719
H    5.742523   83.211685   83.492859
H   47.289036    6.717546   58.367561
H   60.795128   64.319725   90.234177
H   42.864944   90.347893   39.913174
H   39.743755    1.835358   89.081581
H   79.246948   41.054829   57.302082
H   30.195810   62.086311   13.759923
H   52.569168   76.948242   44.187485
H   38.462879   84.992241   92.264343
H   76.407295   28.105068   14.212549
H   75.223289   37.704460   75.543724
H   80.192574   18.791269   97.101166
H   90.535446    0.580566   63.176598
H   65.133842   51.810215   53.916546
H   45.392677   52.529762   73.190178
H   31.050369    7.686876    9.039242
H   52.167873   26.855453   42.604431
H   45.002369   74.281273   36.104012
H   95.176994   12.732176    5.870065
H   35.239506   12.443045   57.428596
H    1.385263   53.311020   33.505470
H   78.098167   40.613125   16.176537
H   18.459284   46.192230   98.384850
H   40.063297   87.119133   88.077026
H   83.447556   38.079700   10.189619
H    7.001963   74.736679   14.900400
H    8.541366   54.073669   20.562111
H   75.847374   64.199272   39.604485
H   21.576952   14.561643    5.191111
H   96.551872   74.163628   20.341457
H   76.619675   56.607349   64.266495
