100
TIME:    8.857, STEP:  8857
H   18.359406    9.792475   91.037186
H   55.867355   84.811920   36.567043
H   32.014599   11.112166   19.372555
H   82.963226   67.741997   54.681389
H   15.832823   82.684860   25.555367
H   90.670044   91.612648   55.884964
H   88.774727   59.406258   83.082100
H   23.743561   54.844143   94.972954
H   35.905907   34.728317   42.570827
H   32.844002   43.558399   54.508095
H   76.398468   22.622334   86.598244
H   17.793373   67.646263   62.478050
H   78.968109   25.885300   44.922852
H   16.535959   77.776131   31.261784
H   88.183113   78.881935   24.967896
H   45.402939   37.063438   97.832092
H   11.879823   67.791267   79.676003
H   90.464706   63.857338   92.499588
H   83.216324   49.916645   29.982845
H   53.890636   17.725771   19.358301
H   38.689781   74.475433   16.850458
H   11.509561   55.841782   65.022919
H   67.488487   22.593229   78.940857
H   96.114639   42.783661   49.276775
H   12.807733   83.755951    1.949961
H    5.845015   64.999130   57.399654
H   98.329597   74.303238   75.705307
H   85.213654   69.854523   59.539978
H    3.757572   52.668179   38.496208
H   40.609138   71.628616   87.494995
H   64.636559   16.280342    8.641426
H   24.993549    7.804010   79.327232
H   94.231583   20.461990   95.705460
H   52.331696   62.031494   98.620934
H   60.529472   89.070839   63.921238
H   42.561069   79.150406   91.581581
H   29.300873   80.172127    6.362315
H   97.916908   96.863579   47.454384
H   71.216698   88.439232   86.003540
H   28.963377   83.020836   34.884705
H   29.937799   60.085114   51.011562
H   53.794205   76.335892   32.126858
H   87.510529   16.618469   41.222950
H   13.795544   61.312721   46.724316
H   88.376633   82.447792   14.028731
H   63.795952   31.844555   19.143854
H   10.937243    6.511602   10.486601
H   56.728207   86.594223   16.598103
H   23.929741   98.914345   91.164337
H   11.692364   65.543419   64.252586
H   42.893429   14.557255   46.794846
H   35.579739   41.875179   92.628944
H   92.586327   73.364624   88.471970
H   71.581146   62.698944   22.650841
H   35.587807   34.789833   75.675339
H    4.627142    3.217019   91.113602
H   57.745995   33.981651   98.361748
H   66.545349   40.453148   85.418480
H   88.810555   13.008313   31.533373
H   74.547417    8.565862   11.696434
H   18.406839   66.677979   23.834934
H   84.565666   45.502365   94.603127
H   75.363174    2.896842   26.119385
H   51.234852   90.010849   86.671631
H   83.873047   53.450771   20.382631
H   57.249367    1.965955   69.879326
H   76.954636   54.569920   94.677414
H   68.552155   24.079010   89.618423
H   98.332489   13.378792    4.736206
H    9.906066   93.509232   83.058060
H   40.777996   92.769066   55.908913
H   43.914597   57.513084    5.260978
H   29.498779   80.206749   34.656483
H   35.231541   88.860329   76.900948
H   89.122208   41.356686   72.845367
H   35.042725   75.224358   99.966293
H   71.187332   59.205509   47.823845
H   48.092587   71.588539    3.587456
H   86.238762   27.502918   16.500414
H   65.169731   26.536932   57.882744
H   84.205864   20.912088    9.354012
H    5.918831    1.911357   46.027054
H   78.099617   55.238560   73.439522
H   59.495499   70.071877   54.466457
H   21.068756   94.862595   89.166916
H   47.449207   34.385704   56.840195
H   58.693851   59.376106   45.879173
H   98.473961   96.328346    3.744566
H   39.493656    1.029200   55.751961
H   83.261246   44.876228   40.832932
H   86.487602   51.681736   20.505760
H   33.627209   61.610397    2.290934
H   53.204243   93.268883    3.929988
H    3.260478   50.516834   24.011862
H    3.457294   56.374363   19.610556
H   25.473511   45.978271    9.973433
H   59.575249   75.963875   27.814579
H   21.181253   24.705132    1.075377
H   86.786095   75.048866    3.170022
H   89.353973   51.347530   44.517559
