200
TIME:    0.072, STEP:    72
H    4.308851   63.032551   12.466881
H   26.466894   30.425354   83.077049
H   21.658947   61.784821   37.073296
H   12.179574   75.010139   48.892853
H   16.993931   79.471313   56.073936
H   95.083923   57.374779   70.522575
H    0.925251   55.423332   46.399593
H   99.123909   81.631744   31.035618
H   80.605782   90.024841   51.817776
H   16.775143   77.252159    2.698872
H    6.337895   91.005318   87.652710
H   30.083099   37.538681    4.737373
H    7.050822   81.432320   68.177177
H   12.344692   52.498135   34.170345
H   27.733030   70.651314   43.391953
H   34.197269   32.888393   57.947121
H   76.304214   99.850281   23.588711
H   40.551590   75.090805   46.511303
H   59.435764   35.783886   40.010719
H   89.521767   82.011803   43.983234
H   56.068901   68.371841   33.537312
H   93.769142   42.392860   77.048752
H    0.036038   63.762955   53.167274
H    5.075898   86.570076   92.120583
H   95.944359    5.947125   51.405041
H   18.800161   54.881046   12.505194
H   95.642708   55.425785   42.327103
H   90.654816   63.198997    0.289222
H    3.992802   61.636177   39.322098
H    0.641198   16.263842    4.437124
H   13.580830   44.430454   15.989414
H   34.981075   59.568832   89.466957
H   31.182564    5.370556   71.127090
H    1.986961   63.394630   35.353836
H   56.050571   96.742905   35.496983
H   38.549019   53.752426   77.550026
H   81.442566   78.055038   84.693703
H   41.225056   40.409580   22.721046
H   59.287964   52.416454   40.697289
H   91.693893   40.379345   70.258881
H   80.455093   13.073501   95.947807
H    4.977280   46.629745   44.812614
H   79.726761   91.641243   44.090061
H   37.655533   55.075050   12.739867
H   23.037062   71.169479   38.301292
H   43.423958   18.210747   40.860760
H   76.808258   34.442863   92.495293
H   94.205849   65.553169   53.687210
H   80.583237   35.127529   61.045208
H   68.128952   17.043356   12.820120
H   82.204697   72.622520   34.526722
H   27.560266   32.806377   59.929062
H   47.646461   99.230034    5.730284
H   24.906944   78.638412   79.215309
H   84.309982   80.121201   96.206642
H    7.459295   76.488792   73.147003
H    5.909934   16.109718   51.456715
H   65.573227   54.673939    8.335641
H   31.726130   71.232101    3.063215
H   46.988880   96.932533   70.099884
H   50.963615   18.654131   47.144920
H   86.918198   16.026903   47.778675
H   66.818954   21.726229   90.552765
H   20.055557   64.912651   99.916588
H   68.647751   73.574554   11.059690
H   45.329758   10.034340   29.843521
H   92.450539   26.705673   82.364174
H   98.282219   91.067970   83.945442
H   10.546848    3.582969   64.106209
H   46.204037   38.701855   50.991566
H   58.538864   73.686432   68.787567
H   36.861774   28.237741   45.940823
H   72.161758   22.758678    5.121016
H    2.392169   12.657380   55.682156
H   77.099380   98.151833   75.512070
H   49.067360   25.007847   63.975281
H   96.137665   23.695955   74.521919
H   32.777721    2.910735   53.712288
H   10.253307   22.208395   38.659344
H   70.807526   91.603897    2.228966
H   36.237789   32.941315    3.627324
H   19.249481   71.611305   93.050835
H   11.655162   11.823482   95.195183
H   30.152536   56.366066   88.375946
H   44.890732   97.547363   62.543213
H   19.934074   91.652374   31.280045
H   28.325647    2.434034    1.386181
H   76.728584   24.796984    5.105632
H   60.549011   71.632820   76.554939
H   24.285591   78.516945   56.713772
H   48.285019   33.442509   81.501740
H   85.225655   87.061462   94.702072
H   39.278950   18.756828    0.514533
H   67.561584    0.469354   64.491692
H   20.867928   59.198723   60.942772
H   76.229347   23.953163   36.960514
H   77.026665   20.089933   91.093811
H   11.513117   25.828129   47.002934
H   40.824669   71.460953   52.285881
H   64.283348   95.197281   27.209391
H    2.370751   75.781372   61.028664
H   84.325111   74.114883   66.791298
H   19.696913   43.309479   28.155018
H   13.803194   67.629303   83.490921
H   25.561441   29.680527   19.640789
H   80.772163   34.998234   51.756157
H   57.699993   28.010752   57.041092
H   65.740700   27.824028   25.237776
H   68.527092   42.210289   91.008934
H   98.970123   30.402765    4.715029
H   44.984184   97.526680    0.677650
H   79.248169   59.120049   88.597527
H   60.011917   78.325134   97.589607
H   63.793266   23.019218   79.286255
H   69.456581   74.972839   32.663242
H   20.894558   10.712137   71.355469
H   39.482227    6.077037   82.221603
H   41.623470   18.727345   37.336662
H   12.482169   51.406178   91.842758
H   66.349098   43.321835   43.075699
H   38.801155   20.643040   93.024895
H   25.537968   31.459827   43.246422
H   28.186102   28.908016   19.045431
H    6.552508   73.364784   25.222061
H   81.942467   13.109764   98.369568
H   41.567440   57.755474   28.775145
H   99.562538   48.405502   77.542923
H   79.103416   86.252342   33.583691
H   90.400276   58.564877   88.718819
H   59.602310   24.945625   63.639488
H   41.827278   91.184235   96.991135
H   88.148430   84.385117    5.365186
H   92.986336   74.421089   96.125458
H    9.158475    8.695515   47.639008
H   96.126785    4.407791   64.136795
H   66.832626    1.842463   86.156639
H   68.614578   86.136421   46.975319
H   89.785362   69.465797   85.852852
H   41.921997   41.984207   71.589821
H   43.356941   17.147440    0.125599
H   42.300457   68.009644    9.483224
H   64.972305   35.906303   42.330540
H   60.406105   53.668797    5.050690
H   65.411201   32.609192   75.340492
H   32.405148   75.338791   43.575016
H   39.784584   59.080925   37.892281
H   40.757866   97.513512   48.484806
H   47.239784   79.672295   69.788841
H   60.694065   71.805954   99.614563
H    4.080573   86.799149   96.276192
H   82.141853   58.456799   52.612476
H   26.715616   11.758230   53.417068
H   68.371246   38.120388    9.362457
H    5.468829   97.286148   80.104073
H    6.950690   49.442303   57.713570
H   58.514854   43.112339   48.892349
H   57.552715   55.845715   78.766525
H   43.657547   39.355392    5.788190
H   20.070875    2.367350    8.835034
H   65.562660   63.798553   71.793930
H   52.305710   91.234642   87.882744
H   51.491924   23.926922   36.999390
H   57.987789   41.894440   37.301907
H    5.108076   15.244303   78.386780
H   60.562767   16.387831    8.173826
H    9.019210   69.784096   63.220188
H   77.792717    0.284197   50.440723
H   23.485455   23.288918   41.065693
H   91.790184   28.716551   37.253632
H   18.806236   11.727513   92.295197
H   82.574463    3.635910   35.990173
H   51.966652   71.686615   56.942215
H   34.426941   84.672989   95.151077
H   73.290489   78.571503   70.352615
H   79.246216   96.300339    7.130262
H   95.720230   46.753380   23.125566
H   37.143604   47.673073   79.880196
H    0.241057    9.040642   62.732006
H   79.897957   25.285021   71.099747
H   94.292168   52.652977   84.015068
H   84.485016   79.169090   45.625397
H   15.839079   29.900967   63.483051
H   73.369156   90.340073    2.744975
H   47.822838   24.909197   71.009743
H   83.350418   95.621063   79.088974
H   95.743340   34.806168   83.113380
H   25.502493    7.402310   95.542984
H   98.492157   60.108692   19.648174
H   11.483536   60.424229   64.623367
H   46.558548   59.187191   63.580463
H   39.794666   36.582603   80.501167
H   49.030144   80.363647   26.764250
H    0.368802   13.527244   53.957794
H   38.038746   56.825668   29.927374
H   90.659866   61.759274   22.365829
H   74.917984    9.971207   31.868053
H    8.344565   80.978477   97.796341
H   33.792068    0.744995   51.704659
H   14.153628   11.141817   85.530617
H    9.760033   40.684299    0.082852
