200
TIME:    0.961, STEP:   961
H   31.625803   60.082150   27.668230
H   34.390076   43.403934   19.167513
H    3.026114    0.696186   80.861320
H   42.145813   85.400978   25.645725
H    7.555081    2.002930   43.292255
H   66.163208   33.245922   44.208904
H   13.805228   54.792557   63.606876
H   19.045834   20.019131   99.480286
H   16.708321   76.697166   30.130484
H   85.480621   64.797836   67.633354
H   37.324158    9.995925   15.745949
H   33.759232   61.267368   47.096775
H   28.870228   10.937475   31.741417
H   70.325912   56.248875   77.008812
H   84.812332   77.494888   41.204586
H    8.284860   96.259689   38.769512
H   18.135126   41.484116   80.437683
H   19.441969   17.828558   30.684406
H   89.014381    3.599547   53.097614
H   92.350082   69.803246    9.521030
H   66.737823   12.749533   92.808525
H   73.977715   76.373344   42.790184
H   73.414597   57.299202   31.836226
H   23.879808   94.632629   89.325256
H   34.584709   41.701481   19.683140
H   18.064257   94.334251   83.143616
H   12.858511   73.263847   78.071045
H   11.057620   99.872223    2.628409
H   41.435722   34.614571   34.116505
H   60.467922   40.079582   73.685303
H   12.420169   81.571602   17.076315
H   18.814911   80.404770   11.354743
H    9.702286   24.499462   81.985924
H   72.564110   64.364532   50.892616
H   13.387759   60.009083   28.733978
H    9.498204   33.484863   87.731285
H    6.958193   58.867256   91.367714
H   97.251717   63.405754   82.750603
H   26.385902   20.583250   60.458195
H   83.168251   36.723560   35.532318
H   80.718842   71.542625   25.455807
H   49.226486   27.987591   18.451433
H   63.720047   71.219040   77.100647
H   35.675034   98.251945   44.534012
H   53.412128   98.292824   70.382668
H   30.913429   95.074753   50.529259
H   93.561111   90.887894   11.986369
H   72.562790   65.539604   21.727921
H   14.963988    1.391567   61.686157
H   36.315926   21.055223   75.210197
H   61.056763   61.370300   99.295219
H   93.577431   48.107769   79.042961
H   71.624596   73.803917   17.348154
H   11.675643   97.398895   92.380203
H   46.680496   60.350121   67.455490
H   96.063530   54.586536    2.257838
H    3.372896   19.473854   41.920475
H   75.285812   75.340309   92.289253
H   12.967342   88.405472   24.564350
H   26.427635   91.940590   53.665810
H   48.084431    1.309535   21.170507
H    2.894836   18.132879   54.593826
H   91.310677   40.141747   60.560020
H   41.595940   66.180984   19.765484
H   82.938545   86.827621   47.413197
H   10.456457   44.571922   45.823166
H   59.243263    7.953304    0.731256
H   93.303841   93.089165    1.546249
H   42.168015   15.596528   52.853989
H   41.086617   54.196548   50.944088
H   58.148869   89.062431   92.567123
H   11.876951    4.870571   39.717850
H    0.377123   38.127895   75.352776
H   31.354889   93.116745   81.563210
H   87.924301   12.542890   33.711327
H   71.537888   93.622696   58.166042
H   92.380142   56.791317   61.946548
H   99.850594   19.098957   23.312981
H   17.017284   61.808952   18.952614
H   57.410355   86.645866   60.068695
H   73.969009   17.916416   90.429337
H   58.340050   55.623100   65.568016
H    8.186745   21.575066   69.184174
H    1.162400   85.435997   17.350279
H   13.233265    6.948181   37.349499
H   44.979389   60.547684   12.774055
H   68.169273    4.286513    3.424300
H   69.335625   91.710129   38.636402
H   87.754562   73.812050   79.767273
H   19.832859   18.365437   46.933361
H   11.019553   41.116943   77.547523
H   79.033203   94.861374   14.099949
H   81.511787    8.730551   75.195366
H   27.696770   68.530411   88.902023
H   43.393555   47.173294   97.968613
H   39.413765   43.829372   95.161697
H   89.086006   89.340065   29.380920
H   99.180649   41.729214   57.933392
H   20.680550   62.555489   55.436367
H   79.740738    9.642600   27.426432
H   42.034756    0.361299    2.890854
H   17.381878   87.564644   61.887527
H   38.125053   10.820181   40.577751
H   56.520302   69.270676   18.794920
H   24.382977   17.997616   48.463158
H   15.967579   91.473244   10.134378
H   87.706848   36.961651   50.390404
H   60.502319   61.957119   90.862343
H   91.119705   30.988590   33.996616
H   27.527822   18.007689    9.066023
H   56.680660   89.801376    1.303127
H   14.943593   81.476013   98.723846
H   44.571484   88.641365   78.252609
H   60.781822    3.853571   56.362431
H   39.789787   11.991602    1.491995
H   84.614441   84.706535   11.460889
H    2.930867   18.595287   92.585312
H   37.113087   62.484848   19.566429
H   46.243198   84.783012   47.906761
H   89.809875   61.064938   76.240143
H   48.079659   26.550625   63.893936
H   87.180580   10.400066   69.395775
H   49.618904   91.413834   45.418472
H   93.454964   41.373981   86.291161
H   55.342262   91.101212   68.967194
H   74.135963   82.079796   11.610777
H   77.465050   52.556412   43.209747
H   59.657898   93.224785   41.091953
H    1.340547   26.385155   68.459396
H    2.691722   20.731977   78.784882
H   77.713654   59.441986   30.964817
H   54.025513   93.202408   26.329937
H   90.083412   17.672600    2.739328
H   65.566963   31.488556   58.580463
H   40.043911   88.333267   23.285606
H   43.154808    0.701514   73.059570
H   70.086388   88.401787   91.231339
H   97.368233   41.708954   71.806229
H   65.158951   54.416588   71.379562
H   43.838501   74.511391   75.423599
H   86.312309   41.865856   38.200272
H   24.046839   62.917736   63.054565
H   31.827896   70.030403   75.065239
H   24.675316    0.428641   90.072151
H   74.192329   45.855125   72.644943
H   72.358566   74.396973   95.314491
H   61.783714   93.620338   42.119400
H   22.965103   46.580322   64.688377
H   84.460052   34.689259   90.776924
H   32.445450   96.546432   63.015541
H   50.807987   73.554718   45.901161
H   64.137985   87.158905   25.557819
H    9.670218    4.879200   78.155098
H   28.968985   17.692358   58.134544
H   42.202911   72.921326   73.796280
H   84.905685   45.316662   76.244423
H   66.858353   82.506813   89.293015
H   56.296795   25.091728   26.615694
H   79.382721   99.017395   75.865753
H   55.596260   27.525364    5.909606
H   61.038219   55.117661   64.245621
H    9.751320   19.319887   29.297825
H   96.254829    3.134451   36.932259
H   37.739952   41.360466   40.352451
H   52.050690   46.553143   16.908791
H   24.335863   41.498238   58.360504
H   62.484543   85.905281   59.865051
H   24.262054   63.736546   77.827011
H    3.870681   25.825497   35.154438
H   59.375950    5.018742   82.284180
H   65.591003   14.208180   35.915565
H   21.254753   38.666645   59.672184
H   51.603703   46.472214   70.137100
H   62.347141   57.293736   90.967186
H   37.927032   89.612762   65.330032
H   23.162560   51.562016   23.995502
H   28.010925   75.445549   17.067280
H    8.120137    9.888458   74.099533
H   57.161888    4.618179   60.703201
H   52.004047   62.189217   96.555969
H   68.254417   11.027308   24.956209
H   33.770222   30.986172   95.937462
H   32.436569   89.405342   20.351677
H   67.182091   26.554428    3.715020
H   94.846809   57.062370   75.426407
H   14.354133   42.307648   87.562721
H   56.457611   92.174957   15.240807
H   55.782555   97.764961   50.755581
H   85.737801   64.388283   74.783600
H   62.724712   54.351246   74.812332
H   82.262032    7.170167   74.152718
H   41.742313    4.523217   15.440855
H   20.115604   34.677090   74.324066
H   22.507786   92.305779   47.843628
H   60.151608   22.051367   19.457819
H   77.088394   12.152638   19.688322
H   14.253846    5.219759   27.802290
H    7.955329   83.076614   26.633030
H    2.298641   13.629311   45.771416
H    0.487730   10.565413   87.731850
