200
TIME:    0.356, STEP:   356
H   13.035642   62.090015   17.323105
H   28.998198   34.571632   94.606316
H   15.706363   74.215454   51.061821
H   21.752701   78.329597   41.466324
H   13.978541   86.669250   51.990700
H   85.844910   49.666573   62.115837
H    5.039855   55.221825   51.896633
H    5.488122   93.895538   20.954823
H   92.139381   85.767181   44.889599
H    6.777784   73.274010   91.496956
H   16.236948   97.072212   96.627380
H   31.257477   45.119049   18.269449
H   14.021251   90.857674   56.537407
H   98.920692   53.696346   47.855526
H   14.021346   72.837563   42.693176
H   25.919209   21.186871   51.820641
H   89.664383   13.151352    9.800068
H   33.807587   88.743484   41.455196
H   68.884949   25.502323   44.191460
H   90.425301   78.111656   32.973988
H   59.477196   82.548874   20.525990
H   87.446571   53.248268   66.104507
H   91.531548   61.698044   46.352852
H   11.065240   89.116768   91.222343
H    8.288421   17.369375   41.271160
H   18.565069   67.484238    3.125341
H    1.142060   61.124332   53.745865
H   97.172394   74.914680    1.036497
H   15.954289   53.003853   37.659119
H   87.807510   23.871836   94.613266
H   13.210045   56.295567   16.336636
H   29.816631   66.225082   96.459053
H   24.320473   11.481598   74.596054
H   92.587379   63.704475   40.317856
H   42.421726   85.007797   33.336735
H   29.272087   47.277100   80.806648
H   89.593872   71.925308   86.825783
H   27.177132   47.755939    9.951859
H   48.777069   42.246822   47.010109
H   88.970291   39.211468   59.165131
H   80.538826   99.805069    5.374571
H   19.113115   40.674438   36.391548
H   74.613235   85.117165   54.635624
H   37.022842   68.867867   22.897039
H   32.740341   79.834305   48.550011
H   39.427391   10.819618   43.949459
H   82.160126   20.529091   98.722527
H   87.291756   65.548836   43.477493
H   91.566483   24.350124   61.249966
H   57.966259   18.324987    0.804767
H   75.448776   69.027885   23.271549
H   16.703775   37.694561   66.035683
H   55.304832   91.102562    9.445798
H   20.680161   84.631638   83.420967
H   72.288864   73.805130   87.021797
H    3.818617   69.492363   82.446686
H    5.099435   17.184425   48.410267
H   68.676010   61.276020    3.209784
H   25.733446   76.718307    9.932076
H   40.420383   95.337807   64.849854
H   50.043831   13.113214   38.847359
H   92.020889   16.699678   49.955173
H   74.643082   27.609491   80.971405
H   26.936607   65.317833    6.257430
H   73.213089   77.808380   22.673033
H   34.189423   21.067816   34.948380
H   81.842140   20.715157   88.231728
H   96.691826   91.713661   89.568153
H   20.648623    7.420821   60.511574
H   44.569225   43.651791   50.976398
H   58.414276   78.598450   76.384186
H   28.880344   20.772753   43.952831
H   81.175430   27.668530   95.611450
H   11.644465    6.414944   63.949383
H   80.557510    2.749350   62.158401
H   56.245796   14.981248   62.119461
H   94.937286   34.268600   70.504768
H   22.258739    8.082235   44.000923
H   12.412472   34.861538   32.369274
H   66.528198   90.020004   88.760406
H   48.291409   28.141531   99.411652
H   31.736992   66.504280   84.271172
H   10.547141   14.938724   86.885704
H   20.891314   65.652748   97.632294
H   34.777435    0.550491   54.494827
H   27.935333   81.715668   25.368073
H   41.054207    3.025827    2.037257
H   74.366829   14.226999   15.817456
H   69.236084   72.339149   77.588402
H   22.863121   91.246590   53.589321
H   36.380135   35.894184   80.238525
H   83.247414   89.553223    0.898957
H   52.770206   15.553833   92.426086
H   54.826221   90.266136   72.289818
H   28.064240   55.357079   72.771049
H   64.468239   30.302818   23.607588
H   80.879143   10.266981    3.325054
H    3.705782   30.241253   49.691868
H   34.389427   68.616013   53.292336
H   69.221367   99.812454   27.278727
H   15.041675   83.633667   74.402077
H   94.885841   78.411545   65.224739
H   25.583967   32.930756   32.123943
H   27.449915   68.153656   94.768845
H   25.184969   25.948303   28.848385
H   92.015419   21.093554   38.459908
H   71.153328   31.537134   55.719376
H   64.067970   38.728188   14.256111
H   75.744530   38.625404    4.741779
H    8.093066   26.443033    6.104998
H   48.720741   95.058754    0.877465
H   90.651764   66.262390   91.832481
H   55.079315   81.620758   91.412209
H   62.831230   16.896530   71.962646
H   59.979225   86.798950   22.705376
H    9.304465    2.403755   84.167450
H   27.805622   10.076106   85.532394
H   40.182583   32.706120   31.659782
H   23.267698   62.068745   77.806564
H   73.843880   48.990047   53.670013
H   41.765266   22.530277   83.718712
H   13.283924   24.732075   51.600319
H   35.033028   16.930233   27.470289
H    2.368221   63.144325   12.785398
H   73.445366    6.079981   88.976616
H   51.972164   65.526306   23.291647
H   92.503273   49.731552   66.574844
H   72.891350   88.479759   35.982281
H   93.895241   48.284740   82.246742
H   73.367661   23.599533   68.477837
H   53.291542   81.043854    7.844357
H   77.247520   87.201889   12.062551
H   92.058968   88.238441   98.238037
H   95.232605   15.977142   51.135056
H   10.156598   99.272675   51.086472
H   59.268509    1.477975   81.972649
H   69.084763   86.860115   61.113350
H   92.207787   60.599049   81.365517
H   49.345276   45.955856   71.522652
H   43.510780    3.526427   92.234283
H   56.360485   59.657394   18.657043
H   51.898148   44.535378   48.951038
H   51.276512   58.896076   95.471619
H   52.397713   22.328619   80.046669
H   45.754482   65.919937   52.861698
H   50.190392   63.974525   24.290520
H   47.474785   96.269798   46.451313
H   39.484993   69.100731   68.159447
H   68.286346   59.949135   96.791290
H   13.159662   89.941246   85.655960
H   72.131477   63.279980   50.468479
H   38.670410    3.900047   44.517151
H   81.564575   27.501156   99.392319
H   12.976339    3.805352   73.085976
H   18.212376   56.942501   62.852013
H   66.945671   43.816532   57.629761
H   60.525494   64.362167   82.129318
H   47.695282   34.798721   12.441776
H    7.072731    1.297248   98.303078
H   62.379154   52.210785   82.692673
H   55.095398   79.696709   80.331627
H   38.157757   22.455158   34.539047
H   70.212578   29.512447   37.183819
H   15.532572   23.587391   66.235657
H   57.843498   26.024443   10.964327
H   13.912269   60.748363   61.667713
H   72.902367   95.690742   53.451420
H   23.733547   36.210320   52.809467
H   95.649162   27.792974   36.583023
H   31.766640    9.584329   89.097076
H   77.148926    7.013328   35.966339
H   42.155617   61.138588   57.814331
H   39.914230   72.469864   87.160110
H   69.797646   71.763611   76.930885
H   66.046387   94.163925   93.777107
H    4.488812   48.287437   23.398035
H   34.226078   56.544823   91.760475
H    2.758079    9.311485   66.363480
H   72.635017   18.682940   67.778122
H   80.782494   55.699425   88.021385
H   79.299988   89.346306   39.022232
H   21.567411   30.247646   73.850937
H   60.294689   90.045395    8.365902
H   54.006897   25.435101   81.457802
H   87.023056   83.303101   77.918930
H    1.688855   37.202591   84.534767
H   35.391174    2.537575    1.835394
H   84.848145   72.138130   29.585423
H    3.259102   61.690693   67.869156
H   51.722992   57.642300   67.168594
H   53.361759   27.186501   78.473091
H   46.701973   88.081604   23.146864
H    6.677122   20.283707   60.463455
H   33.076893   68.160614   35.651035
H   80.913834   49.074047   21.436836
H   75.611343   10.668087   27.977116
H   10.232345   88.722435    7.382062
H   25.538267   95.100731   43.695274
H   10.366424   11.936472   72.829140
H    6.797873   31.062801   96.137192
