100
TIME:    8.224, STEP:  8224
H   61.166496   67.841148   91.616714
H   73.349808   50.511578   96.654251
H   21.133944   65.571426   26.802597
H   82.856979   93.820793   89.377144
H   21.504961   31.947117   42.718170
H    0.483590   92.298424   93.196175
H   21.950718   16.661180   33.580677
H   73.496109    0.083214   53.094116
H   51.466255   95.588501   82.416031
H   50.133278   34.469456   29.723358
H   35.278580   97.153275   47.571892
H   41.954895   35.917065    7.536103
H   19.332680   64.197006    7.828880
H   47.877617   79.727211   83.090172
H   80.494698   35.424606   55.407646
H   70.853912   92.427757   50.377228
H   62.781868   25.924702   22.051519
H   76.930161   94.659294   14.442205
H   73.354675   23.359737   96.635193
H   70.945236   31.168425   76.260780
H   76.252907   37.492352   34.030788
H   50.823231   55.001465   18.928680
H   75.939949   27.738962   97.051132
H   54.930374   35.211151   96.287735
H   35.446114   33.956078   97.276039
H    8.830563   83.659958   16.967049
H   52.914833    0.613923   63.148525
H   38.624481   40.308216   38.614159
H   89.993523   95.237900   68.419212
H   16.338097   87.295212   37.172577
H   39.721775   59.516838   58.722374
H   85.025749   25.291851   37.927177
H   49.644947   66.775398   38.679825
H   25.585861   20.042061   25.286772
H   76.282997   36.997795   25.406721
H   87.536209   29.568480   93.571297
H   68.586815    3.353591   56.484341
H   24.079704    8.447241    2.787130
H   97.932976    2.231646   47.345421
H   88.584518   42.280121   85.082031
H   73.199509   38.367271   36.098354
H    7.139989   73.853577   99.810997
H   82.062958   12.821152   95.502052
H   54.212849   50.683197   84.834259
H   43.284500    7.417132   59.860893
H   71.967186   19.773453   16.572195
H    5.988313   72.087105    4.407809
H   56.689571   80.074524   77.432076
H    5.428200   51.337723   16.414768
H   98.405029   55.907978    8.509858
H   42.936893   75.669258   40.120605
H    4.814660    0.612272   34.182648
H   79.459999   69.694275   25.235067
H   86.243225   73.024826   94.719498
H   85.987495   79.317291   70.295380
H    3.838741    3.882874   12.662430
H   17.618454   52.246468   38.158363
H   13.680003    0.231557    1.722712
H   38.884151   86.261711   80.130066
H   16.320358   59.913242   29.700462
H   78.476669   96.118042   73.187538
H    7.032112   51.394241   23.244110
H   32.387562   46.092316   69.526093
H    7.766705   86.562653    3.855600
H   58.749466    4.006358   61.434311
H   96.135750   33.433830   32.451420
H   27.741922   32.687878   64.116928
H   12.277935   87.876274   59.357361
H   66.786804   58.862144   44.438416
H   97.049904   61.712765   84.400635
H   60.882816   35.840302   63.500740
H   96.041351   78.530663   58.860935
H   70.770889   11.519587   50.888119
H   49.164379   28.923233   14.511560
H   58.629333   40.424610   24.850729
H   20.076395   34.653847   42.558289
H   13.697352   13.991875   36.595474
H   18.356821   12.976559   68.622986
H   55.882401   29.362240    9.436113
H   96.213158   61.019279   12.416195
H   71.813606   14.363412   71.520172
H   58.417725   97.804398   98.984688
H   38.060707   44.652500   13.154798
H   15.947850   15.904533   12.282465
H   51.890030   34.459988   50.528404
H   62.019527   11.134276   12.882850
H   16.417223    5.400444   15.695381
H   88.293571   46.981834   10.307907
H   26.356632   36.272575   60.929085
H   39.226742   70.919937   18.205690
H   60.582661   17.504025    7.137922
H   86.791618   14.002966   90.227928
H   12.627668   74.279655   54.979126
H   42.083443   12.113393   81.330498
H   14.402893   13.073280    5.065890
H   73.190262   70.975281   42.668739
H    9.820154   39.637077   64.218925
H   22.403093   93.383629   13.783960
H   16.940422   72.315422   56.192074
H   50.034657   67.589890    5.495543
