100
TIME:    0.153, STEP:   153
H    6.975943    7.990462   99.005936
H   97.014214   13.040165   87.651733
H   82.393188   84.911446   21.543396
H   81.502289   26.347063   31.776461
H   93.800644   85.021149   61.556770
H   25.643803    1.047130   93.897331
H   44.951298   71.669838    2.417311
H    7.860800    1.839164   94.145683
H   49.866966   71.583038   90.456108
H   70.659355   18.583775   13.680193
H   86.023346   72.398834   25.012066
H   50.002155   31.359612   82.038582
H   33.530319   52.450714    9.922301
H   47.506351    4.605533   68.884392
H   82.363823   56.355042   43.418247
H   95.371704   98.354393   20.339268
H   11.765247   92.115242   87.285194
H    4.414258   87.260147   94.241989
H   47.646751   84.771805   71.422134
H   88.507820    2.324186   26.625986
H   55.197311   40.986084   53.088814
H   77.018410   44.301880    6.227489
H   83.701256   93.377876   27.973370
H    4.826189   38.516758   95.711212
H   24.110777   74.039513   37.688126
H   45.954350   23.053654   74.830589
H   48.885815   36.116970    3.002405
H   19.631149   63.580700   71.833237
H   14.498067   62.973293   49.939575
H    6.860685   87.052933   95.552086
H   22.120333   35.762596   97.304893
H   75.417908   48.283127   85.100121
H   81.135315   57.287895   11.580403
H   84.566643   59.701141   65.305672
H   76.968773   47.354599   34.044998
H   85.857689   96.504570   20.117880
H   94.473930   98.931969   20.520920
H   57.664803   56.153904   33.238087
H   43.842510   77.241890   27.462288
H   48.782169   97.859428   50.072311
H   24.785961   61.428478   45.943295
H   17.870407   18.723436    9.988408
H   12.559476   64.417435   12.524834
H   69.589447   15.335885   95.691299
H   43.383652   25.855270   69.200134
H   75.997383   66.080376   83.918282
H   37.695606   33.994320   28.930609
H   56.247585   96.957489   78.044724
H   69.499931   19.778019   38.370918
H   29.098684   33.078152   72.963150
H   43.530209   54.873276   55.034794
H   12.568700   49.542068   64.019211
H   12.053061   22.895874   93.983772
H   73.142319    4.705849   38.567280
H   28.579163   71.918289    1.704448
H   93.757675   12.371433   87.418320
H    5.952137   85.132072   70.538994
H   14.666918   62.437630    9.613956
H    2.344663   45.233597   99.737152
H   48.924110   39.548203   59.253204
H   69.352036   71.454453    2.467401
H   93.480865   26.521255   88.431717
H   84.611046   96.719658   23.061737
H   53.546272   42.626762   22.986647
H   38.394623   48.624767    9.809419
H   91.946449   34.667072   55.232418
H   75.293022   53.650784   74.449020
H   69.796989   26.287750   73.516884
H   64.529655   38.792717   50.637455
H   33.486160   55.840218    1.409029
H   17.174196   84.994209   60.312412
H   61.350491   46.447777   67.824623
H   97.015411   10.739407   57.826458
H   26.823311   39.697697   94.115364
H   69.547165   28.861399   12.996238
H   29.275091   17.378038   85.634567
H   80.846710   13.283108   93.739563
H   39.168549   40.716129   22.889511
H   68.887856   53.052265   19.394459
H   92.022049    0.621016    7.740103
H   13.876066   30.864096   89.133316
H   52.803638   45.226761   73.986877
H   27.476860    9.811097   44.472290
H   60.695953   25.254002   49.455330
H   44.880653   39.314438   32.920540
H   47.775455   14.670653   52.409107
H   77.373238   92.228569   30.838818
H   58.418167   93.044609   94.147942
H   58.858345   85.653664   26.949177
H   52.807930    2.991816   29.681273
H   30.283968   81.692642   36.692822
H   89.607079    7.013605   36.439941
H   95.101189   32.215904   30.751547
H   62.016754   22.512781   37.134762
H   53.946552   36.024998   19.602913
H    6.558791   89.689751   59.546288
H   50.457756   76.460793   28.389763
H    7.427075   17.540375   53.587242
H    1.423609   37.509815   32.235714
H   48.743328   74.773201   82.949814
