100
TIME:    4.214, STEP:  4214
H   32.346100   35.575989   95.287979
H   84.095406   33.214294   43.812256
H   52.189537   77.076225   73.878456
H   82.183914   59.033623    9.178716
H   57.426636   10.528186   51.445358
H   62.679043   96.642754   96.072289
H   32.115017   45.887737   19.993296
H   88.674202   53.165722   21.278088
H   50.039772   81.134415   34.830456
H   59.682823   76.890160   72.706909
H    8.279007   35.801807   33.835926
H   95.002617   34.916527   92.972359
H   75.163101    6.760834    6.297911
H   46.428093   92.087135   77.927719
H   31.760155   93.616211   48.209934
H   32.089417   43.157280   83.242126
H   85.242256   60.692722   57.005394
H   91.186974   89.773705   53.449520
H   10.902832   55.137489   85.372223
H   78.984673   16.327166    3.241348
H   14.211975   36.700542   42.867790
H   66.380630   49.678131   60.417252
H   29.481056   60.350029   11.782146
H   27.515266   87.221985   94.104233
H   78.867584   51.969009   67.661171
H   27.336531    2.077059   94.153297
H   98.700554   67.308060   83.581337
H   76.976288   53.134979    6.062563
H    2.799855   31.418690   57.973976
H   62.576614   86.542961   18.389454
H   81.903206   99.933632   75.980675
H   31.831617   36.083023    9.152931
H   67.186989   60.165916   77.427353
H   56.153229   87.534851   94.222771
H   76.022324   40.374107   81.331314
H   38.953144   15.487799    6.180135
H   83.976242   50.210434   40.511951
H   89.820076   81.833717   19.812252
H   67.200256   89.602531   35.943993
H   66.280815   17.682461   69.584045
H   47.254379    0.778275   41.625713
H   52.890823    0.983477    0.779181
H   47.538486   88.770050    5.855992
H   10.266863   83.392853   92.757446
H   91.122398   65.626221   16.714060
H   23.721294   43.292408    0.278178
H   74.656540   54.009727   65.917900
H   56.464466   38.772797   29.316338
H   88.210190   83.446136   76.377045
H   14.257762   94.873695   88.931984
H   43.223118   62.809029   97.848557
H    9.925417   72.712250   97.419678
H   96.283516   46.442932   58.127956
H   79.105125   38.450645   17.768528
H    5.269405   27.893038   36.188862
H   98.838882    8.101095   49.172302
H   63.399563   67.953484   56.773933
H   12.272550   78.927208    5.011541
H   22.626158   16.820469   87.972176
H   80.937958   51.690945   43.754402
H   25.523230   82.601219   85.839272
H   49.351524   88.718765    4.682819
H   60.150028   19.727272   44.503838
H   32.406929   64.718628   12.728367
H   99.582329   24.278442   88.000267
H   42.472359   32.782295   95.348373
H   49.471634   94.052063   70.514084
H   89.275841   58.540543   67.656166
H   66.929031   46.995163   95.937073
H   15.762384   60.096085   92.859650
H   88.218346    8.679020   11.597473
H   26.503872   11.670680   65.152397
H   32.231369    9.865704   53.703468
H   37.444088   82.709648   52.772240
H   65.343391   34.646801   20.847914
H   25.278650   77.651329   12.381218
H   49.559258   61.305958   65.575691
H   29.961712   75.178230   47.164154
H   63.587418   41.140881   64.702995
H   92.862579   79.451012   57.881340
H   93.335739   72.877426   31.849234
H   57.507431   71.748184   34.405884
H   84.416634   77.597473   31.262707
H   40.066498   72.760078   78.532791
H   47.142838   85.296547   39.252304
H   54.308979   63.844215   34.416275
H   48.598259   96.960785   24.483427
H   23.786600   67.911232   51.919090
H   43.136826   59.543297   93.725716
H   93.764084   35.900627   74.856293
H   96.476807    0.976233   22.453775
H   90.089752   12.415573   13.822611
H   55.579048   53.959076   44.879620
H   54.527615   68.844284   10.947412
H   83.732491   72.265800   12.920485
H   41.980728   29.324486   49.790428
H   28.114597    9.513381   94.837662
H   22.334188   52.117371   88.604774
H    7.967919   55.015194   92.069756
H    0.959808   70.493111   91.791946
