100
TIME:    3.638, STEP:  3638
H   71.299225   88.398254   95.815323
H    0.071924    1.990512    7.483822
H   42.288658   35.635796   80.637245
H   82.087234   82.764091   40.752071
H   62.585815   64.359245   67.063522
H   71.609383   97.266777   39.029350
H   62.301052    6.991981   74.949272
H   33.946671    3.335900   74.165428
H   64.198952   36.514603   71.088875
H   75.424034   68.619652   50.151474
H   61.857132   12.625210   89.318886
H   16.987427    6.044837   33.971703
H   11.849677   41.603424   63.540466
H   74.948601   93.862526   34.093670
H   24.753075   45.066269   75.897987
H   55.248596   93.536186   31.055964
H   31.560921   22.596531    4.569845
H   78.882286   17.784920   73.420593
H    1.931767   30.971964   55.024891
H   94.506157   28.559343   64.024590
H   48.392639   94.042480   58.499138
H   11.158951   48.913483    9.468933
H   37.171486   65.034599   28.263554
H   81.031868   80.313782   36.884060
H   99.469147   97.646927   63.407265
H   29.976103   19.209738   48.180710
H   48.370426   91.249466   72.155556
H   25.578279   26.249237   87.024406
H   90.275253   79.159927   85.202492
H   40.489700    0.798873   72.599243
H   59.235287   48.281651   21.551964
H   95.462868   51.995621   62.476173
H   26.612921    2.309374   25.536726
H   31.816299   40.321693   18.487843
H   90.339706   83.915123   46.256386
H   88.869225   70.270172    8.129094
H   28.730873   71.304184   95.125603
H   13.627744   92.371803   79.164650
H   91.510803    2.152933   91.763329
H   20.534840   71.606552   24.264158
H   86.620590   81.011826   28.055403
H    4.658434   75.134705   73.717697
H   42.577061   85.315948   64.248955
H   47.047791   73.742462   36.438431
H   41.086010   88.354736   67.424255
H   31.152447   32.306080   97.939857
H   70.156540   22.684856   60.386711
H   56.433704   32.840179   93.676781
H   71.370346   31.150360   99.351654
H    2.177196   86.111000   29.217937
H   43.267063   18.418133   91.775314
H   81.933029   26.159695   35.234226
H   84.339180   43.103088   91.579903
H   92.446922   47.850548   92.352081
H   51.130508   77.411072   31.289278
H   98.118179    8.707541   68.780701
H   26.885401   84.573601    1.991435
H   55.163078   33.323761   19.848862
H   77.197670   92.482590   32.191563
H   18.948921    7.416045   60.137215
H   89.188179    9.389127   30.748753
H   69.794884   94.080093   30.746376
H   21.043711   59.032646   84.001884
H   92.854240   61.584320   28.368504
H   76.721977   70.283821   34.360615
H   77.857124   61.417061   61.290756
H   95.684525   74.136047   42.705486
H   29.064369   25.598711   40.120037
H   38.220009   88.382858   32.063564
H    4.092707   31.123007   94.072540
H    6.508776   47.870552   18.507874
H   73.996750   30.787140   22.978668
H   69.787033   38.355450   68.472160
H   50.126705   19.159168   86.996849
H   37.574139   33.825024   77.182899
H   11.660348   40.734497   51.137600
H   97.261452   11.228584   55.389164
H    2.900187   12.840204   15.352167
H   35.967789   42.832775   58.274277
H   21.111092   10.819962    7.504288
H   82.068161   66.918442   97.424026
H   14.287259   67.986465   82.569946
H   47.975246   67.982239   76.401459
H    0.439262   23.470634   31.141785
H   75.188736   21.325054   95.089218
H   67.566101   42.684547   94.416840
H   10.128531   38.840691   97.017090
H   14.516336   14.027086   57.908836
H   31.183552   91.614586   98.436653
H   44.690716   59.600334   54.265594
H   72.904541   69.871819   10.289712
H   47.469887   69.102104    2.846450
H   18.656990   36.675385    0.336573
H   98.853645   33.903976   72.109276
H   93.690498   23.859554   99.685234
H   94.405441   52.070320   79.541405
H   73.835114   76.458031   27.964964
H   20.220419   47.213074   97.824501
H   35.407372   52.532284   40.316589
H   65.179634   85.276314   47.280090
