100
TIME:    8.562, STEP:  8562
H   38.308586   36.844749   91.307266
H   64.014786   68.827652   17.966095
H   26.943834   89.888901   22.835213
H   82.913712   79.895622   70.851509
H   18.476236   59.039310   33.553345
H   95.243408   91.932243   26.669205
H    4.236455   39.485565   60.012714
H   46.929977   29.323778   22.059036
H   43.157570   63.091278   61.141117
H   40.901405   39.322636   42.957649
H    3.838639   10.753169   15.014685
H   29.053482   52.859356   83.476814
H   97.779221   43.739876   74.238632
H   31.141691   78.685402    8.811337
H   84.600044    5.232773   39.153877
H   57.263977   62.865135   22.320141
H   35.601997   48.279758   52.820992
H   84.155777   78.212120    2.726238
H   78.620453   37.540203   14.441958
H   61.837757   23.990515   99.273415
H   56.195503    3.842473   24.857222
H   83.227623   55.450165   90.144913
H   71.427162   24.991320   87.380875
H   23.524305   39.254608   71.186325
H   23.357925    7.150124   99.772255
H    7.236492   73.695724   85.159973
H   23.767752   86.564896   69.853561
H   10.105391   56.084919   49.787819
H   97.342918   25.903452   52.441368
H   29.297531   78.929794   64.042999
H   53.025471   89.826912   31.980888
H    6.367260   15.954247    6.636817
H   73.453384   42.045326   69.129532
H   39.867477   89.066559   11.048285
H   67.871162   11.406425   45.972134
H   16.917582   56.044235   92.508858
H    1.006628   90.975349   83.117516
H   10.109678    2.261454   26.637924
H   83.667412   94.867149   14.591011
H   56.748039   10.637221   11.674516
H   50.099197   49.963844   44.061489
H   78.655121   75.179047   17.066498
H   84.971771   14.848682   19.915844
H   32.631413   56.358994   17.881962
H   13.966064   94.083763   88.784355
H   67.603966   26.219002   17.945372
H    8.630868   90.468330    7.653603
H   56.710201   83.555817   98.345619
H   15.307419   23.345551    2.931238
H    5.500204   61.052555   84.877739
H   42.913685   43.037941   43.684418
H   21.242117   69.249664   11.994163
H   86.469002   71.654114    5.604445
H   78.414185   67.511490    9.634082
H   59.075813    8.937222   73.168091
H    4.259720    3.527330    1.156107
H   39.045166   42.493690   70.304878
H   88.511902   68.311958   93.016747
H   65.543114    0.542803   54.181854
H   94.015724   85.891830   20.086937
H   99.797653   80.398071   46.834545
H   95.035789   48.248184    7.950581
H   55.335728   23.027605   46.348419
H   30.976616   88.403870   94.679520
H   72.165054   77.011810   92.910355
H   75.371773   16.630791   52.436619
H    0.622720   44.372128   80.435165
H   88.929733    7.206866   75.515717
H   83.631104   34.575615   23.238632
H    3.914589   78.690811   83.683746
H   50.147541   12.841548   59.446968
H   68.206482   67.308006   83.636887
H   48.733017   94.800102   42.220989
H   41.724728    7.531341   94.429176
H   74.911469   40.922306   50.478199
H   28.067896   56.317802   19.815729
H   44.395340   84.737549   42.591034
H   34.235203   90.876793   87.293030
H   72.091042   28.369427   13.208158
H   79.637047   42.607109   83.297325
H   78.430641   17.860178   91.721985
H   83.781601   99.996323   70.706276
H   59.441002   50.305088   45.345150
H   39.201195   44.828346   81.410698
H   35.432541   13.316854   17.763554
H   54.239483   23.549599   36.354584
H   38.991474   80.825005   31.812477
H   93.729546   19.934055    6.803296
H   33.371830   17.453962   58.164680
H    9.342612   57.014099   30.288355
H   74.415001   35.753735   14.275901
H   11.800196   39.423279   96.669609
H   34.294102   84.419243   81.117188
H   74.749130   32.619495    4.121218
H    8.558189   82.797897   12.832396
H    1.107662   57.627747   25.210701
H   82.991234   59.034325   44.780418
H   21.750673   10.108403    6.998018
H    0.839268   73.774986   27.880138
H   71.029007   58.916538   72.936081
