200
TIME:    0.530, STEP:   530
H   18.382299   61.512547   20.298397
H   30.549067   37.111832    1.670075
H   12.059514   81.831406   59.632256
H   27.617992   80.363350   36.916267
H   12.131139   91.079254   49.488998
H   80.184387   44.943939   56.965744
H    7.560805   55.098366   55.264538
H    9.387364    1.409156   14.778594
H   99.205742   83.158615   40.644871
H    0.652692   70.836693   84.633705
H   22.301699    0.789213    2.125939
H   31.976990   49.763359   26.560110
H   18.291866   96.632362   49.405998
H   90.696739   54.430462   56.240108
H    5.620644   74.177025   42.265053
H   20.847439   14.017628   48.067093
H   97.849838   21.300632    1.352097
H   29.675884   97.108154   38.357441
H   74.674240   19.202934   46.752899
H   90.978874   75.722130   26.228886
H   61.565376   91.234802   12.554337
H   83.572884   59.899117   59.399231
H   86.321053   60.432922   42.177818
H   14.750752   90.703148   90.676735
H   15.851438   24.367369   35.062374
H   18.421034   75.206390   97.378532
H    4.511737   64.615700   60.741867
H    1.165659   82.092552    1.494344
H   23.282833   47.715034   36.640251
H   79.944641   28.533072   88.594315
H   12.982874   63.565037   16.549370
H   26.652500   70.303207    0.742979
H   20.116234   15.225687   76.721405
H   86.828621   63.894310   43.359192
H   34.071659   77.817978   32.013203
H   23.588333   43.309822   82.801903
H   94.587982   68.169769   88.132057
H   18.570522   52.256878    2.128473
H   42.337296   36.016132   50.877823
H   87.301605   38.495937   52.368256
H   80.590599   91.676697   11.150052
H   27.773821   37.025764   31.232113
H   71.480301   81.120018   61.096638
H   36.635208   77.318825   29.120096
H   38.685616   85.143036   54.829155
H   36.978790    6.291300   45.841831
H   85.439087   12.004377    2.537409
H   83.055656   65.546181   37.222244
H   98.295654   17.747066   61.375416
H   51.739552   19.110212   93.443649
H   71.309586   66.825539   16.375774
H   10.052412   40.689434   69.776619
H   59.997841   86.126320   11.719769
H   18.090511   88.303543   85.997673
H   64.923813   69.935425   81.394463
H    1.588060   65.205818   88.144379
H    4.602861   17.842873   46.543781
H   70.577011   65.320953    0.069289
H   22.061872   80.079575   14.140464
H   36.396023   94.360756   61.633286
H   49.480301    9.718428   33.763641
H   95.148247   17.111872   51.289116
H   79.436737   31.214025   75.101135
H   31.152462   65.566078   10.142365
H   76.010162   80.402344   29.788179
H   27.363779   27.827852   38.076004
H   75.342628   17.044910   91.826637
H   95.717430   92.109261   93.013054
H   26.837828    9.772182   58.309227
H   43.567616   46.684498   50.967106
H   58.337944   81.607925   81.038452
H   23.990112   16.199133   42.734837
H   86.697891   30.676678   89.784988
H   17.313158    2.590292   69.015175
H   82.676224    5.566004   53.976929
H   60.643852    8.838340   60.982445
H   94.201843   40.746208   68.043556
H   15.813993   11.250681   38.051003
H   13.735340   42.613560   28.515499
H   63.906330   89.049591   80.508575
H   55.676373   25.200754   96.828308
H   39.388111   63.375195   78.892082
H    9.868283   16.847357   81.794685
H   15.217184   71.342476    3.303309
H   28.581261    2.390471   49.563774
H   32.837456   75.627686   21.745949
H   48.852692    3.388405    2.436175
H   72.919838    7.750885   22.380356
H   74.562027   72.763092   78.215210
H   21.991608   99.045738   51.675045
H   29.086239   37.396267   79.464584
H   82.035393   91.079865    4.695572
H   61.035976   13.591434   87.470474
H   47.023754   84.014870   77.067543
H   32.473213   53.003395   80.017952
H   57.262489   34.193100   15.426459
H   83.239464    4.248641   10.818756
H   98.922493   32.944954   51.339314
H   30.446709   66.872986   53.908966
H   72.246773    2.639663   27.321207
H   22.804960   88.444580   82.595497
H    1.356049   81.044006   64.264946
H   29.190825   26.571676   34.555286
H   35.810783   68.474915    1.678644
H   24.954313   23.661659   34.489658
H   98.903893   12.574560   30.313543
H   79.395866   33.697666   54.909592
H   63.042507   45.408905    7.527775
H   80.166481   36.429031   13.155567
H   13.682567   24.017000    6.956599
H   51.010040   93.546715    0.999887
H   97.638474   70.637878   93.814461
H   52.057228   83.639908   87.627464
H   62.241814   13.145306   67.475647
H   54.172676   94.044525   16.604450
H    2.203434   97.313759   92.017044
H   20.651646   12.526200   87.560837
H   39.299786   41.270580   28.181694
H   29.875734   68.601440   69.206924
H   78.435753   52.462826   60.160896
H   43.581306   23.686543   78.017036
H    5.776190   20.610142   56.718552
H   39.227974    9.591587   32.632038
H   99.804611   56.883102    5.165661
H   68.238853    1.771802   83.221840
H   58.346889   70.286774   19.932039
H   88.178230   50.543991   59.854965
H   69.085365   89.844444   37.451839
H   96.036522   41.986347   78.281456
H   81.801361   22.774815   71.442177
H   60.315422   74.831085   14.493877
H   70.568794   88.927658   16.165897
H   91.490791   96.704002   99.532364
H   86.700668   20.438328   53.276485
H   18.752369   96.126465   43.090851
H   54.634155    1.254662   79.409218
H   69.372833   87.303505   69.775383
H   93.691948   55.166195   78.616234
H   53.893341   48.389191   71.481499
H   43.605034   95.181450   87.399475
H   64.974731   54.540489   24.277740
H   43.887924   49.822205   53.007259
H   45.683029   62.098705   89.602676
H   44.424660   16.030226   82.930031
H   53.933300   60.149231   58.551426
H   56.565781   66.972061   15.957047
H   51.590080   95.507805   45.205441
H   34.733818   62.623787   67.161156
H   72.937958   52.684311   95.061539
H   18.706264   91.840919   79.144501
H   65.998360   66.235031   49.154903
H   45.994972   99.085457   39.064384
H   89.647812   20.995007   93.284424
H   17.575954    7.799263   68.786156
H   25.112133   61.537693   65.999794
H   72.111031   44.247974   62.982964
H   62.346844   69.580627   84.189621
H   50.169106   32.006958   16.518242
H   99.109047    0.641627   91.850029
H   60.428371   45.111237   89.370071
H   56.804573   72.627693   75.705238
H   29.988150   21.553444   33.031654
H   77.702415   21.926033   37.111469
H   21.919565   28.698986   58.791420
H   56.177467   31.928564   12.674000
H   16.910130   55.211964   60.716549
H   69.906166   92.876411   55.296001
H   23.885548   44.126953   60.004597
H   98.013466   27.227121   36.172157
H   39.707169    8.271251   87.137665
H   73.824829    9.082591   35.951736
H   36.144630   54.675583   58.348656
H   43.276161   64.993301   82.264236
H   67.654922   67.601387   80.967560
H   57.959167   92.854996   85.595634
H    9.860932   49.227318   23.564970
H   32.438580   61.980331   99.039238
H    4.300203    9.477425   68.588394
H   68.185188   14.637946   65.743042
H   72.505440   57.565910   90.475960
H   76.123245   95.581642   34.976631
H   25.077028   30.460049   80.203094
H   52.282917   89.862411   11.812042
H   57.796288   25.757023   87.859077
H   89.273193   75.756180   77.202072
H    5.331472   38.670822   85.405617
H   41.449951   99.557121    5.690851
H   76.488785   79.508492   35.673935
H   98.220070   62.466625   69.857773
H   54.887123   56.695782   69.366959
H   61.673992   21.429733   77.230537
H   45.275558   92.810211   20.930578
H   10.542043   24.423229   64.449394
H   30.037100   75.104843   39.157665
H   74.942673   41.302113   20.867664
H   76.036148   11.095049   25.593231
H   11.388942   93.466972   13.254987
H   20.481432   91.642555   38.788116
H    8.046094   12.423338   65.047249
H    4.983077   25.167641   93.719788
