100
TIME:    2.361, STEP:  2361
H   57.657379    5.505640   96.984451
H   35.594780   32.754059   26.931082
H   20.338270   43.763458   95.621574
H   81.872894   35.377831   10.748150
H   74.023788   62.002079    1.689087
H   91.406624   98.650246   12.563271
H   29.230835   20.763191   75.086128
H   34.316353   92.858856   91.414513
H   95.590050   59.292877   51.471233
H   10.321074   50.283821    0.142164
H   80.640564   61.242466   12.326357
H   65.729996   42.035278   24.870188
H   93.079445   18.863808   90.464867
H   38.178352   97.798592   36.913509
H    9.218281   59.133118   37.281113
H    6.593326    5.227372   37.058365
H   34.246567   38.133705   88.316727
H   51.598198   79.885124   17.693539
H   82.037666   77.400940   87.749405
H   28.909309   55.674000   77.080513
H   24.171539   21.172131   93.162247
H   88.731720   47.218246   18.217285
H   54.221275   75.420357   64.799316
H   99.679001   64.998199   31.725578
H   45.140495   98.925812   53.981667
H   35.833172   57.256763   67.874504
H   58.487999   44.333683   46.817837
H   33.327835   66.643211   44.814442
H   62.508453   63.300331   45.566032
H   91.525139   32.405472   71.081383
H    8.977838   33.769604   22.586273
H   14.832012   87.280495   80.694481
H   36.663143   95.740746   10.494481
H   77.858864   57.351181   72.286011
H   22.083950   80.446564   68.495644
H   77.834091   69.954216   12.523679
H    6.249995   18.071157   94.502991
H   66.404701   15.741062   89.050926
H   45.415245   29.973318   15.513826
H   40.813580   91.154167   23.792372
H   73.892067   37.194958   97.968674
H   19.427979   17.820076   13.723318
H   31.577513   77.658157   72.010063
H   28.592909   52.342102   11.580405
H   51.855755   38.737415   58.148293
H   47.627415    7.949238   92.756721
H   60.176250   53.237152   48.120605
H   56.365505   19.692045   14.663185
H   34.043999   36.911152   50.293961
H   75.403374   66.683983   18.533611
H   43.364491   41.704506   78.310852
H   19.872751   44.656170   19.066204
H   57.856163   35.698608   65.747948
H   22.018620   68.688072   36.000092
H   52.801857   65.483932   20.439955
H   96.520370   10.050652   12.252792
H   45.928196   21.421623   80.538139
H   50.251801   53.920410   52.742142
H   76.483421   38.527309   30.227644
H    3.218073    9.261549   96.458138
H    8.634041   68.772896   30.313686
H   15.116470    5.967442   88.526413
H   34.377674   46.151085   71.584396
H    5.164521   54.637749   63.042904
H   26.033535   72.275665   15.436162
H   56.305244   24.900612   85.786095
H   98.140602   29.989244   81.051041
H   17.275551   52.565552   79.072052
H   74.575096   80.139931   12.153880
H   78.216858   66.896065   96.761536
H   47.060539   34.757652   33.828907
H   79.291504   73.168045   29.482683
H   53.050247    1.523167    1.208102
H   78.232323   99.970062   62.887306
H   76.003929   32.003132   80.377548
H   81.474281   58.891838   37.064327
H   81.318787   21.910784   32.805500
H   42.904400   96.340309   44.829899
H   74.730148   46.583729   44.020653
H   83.737404   80.369583   17.518806
H   57.085087   53.707287   21.100124
H   18.471443   59.646683   89.351784
H   67.183151   46.665131   54.773441
H   12.585082   14.195406   47.778564
H   37.368881    1.201343   18.879837
H   96.950195   95.777428    5.738195
H   24.840582   31.688995   36.124985
H   93.962601   16.266953   71.193459
H    4.679306   62.715401    8.883820
H   57.595135   12.136238    8.618772
H   20.644501    0.919544   83.321732
H   52.980038   73.071587   78.509468
H   36.769794   98.377731    1.568262
H   75.427864   56.445927   86.008507
H   15.770607   38.245880   70.340111
H   88.930481    2.498590   45.500320
H   75.197372    3.173588    1.406021
H   15.533921   36.340179   18.258526
H   96.241020   47.027637   47.280014
H   85.867386   18.058990   70.287628
