100
TIME:    9.848, STEP:  9848
H   51.341705   18.913334   90.129898
H   28.497997   38.513218   99.052238
H   49.048923   82.408745    7.739029
H   83.129562   26.913584    0.359305
H    6.952745   62.117615   98.687019
H   75.306641   90.539024   54.026810
H   36.836468   26.322176   60.579601
H   45.852921   40.578724    3.982389
H   11.545235   39.446976   80.191490
H    5.772924   57.787693   93.309761
H   84.217987   62.496735   91.137657
H   79.971046   17.319523   91.938057
H   15.775520   65.901237   46.440422
H   67.467484   74.721596    6.676434
H    0.219828   90.360931   77.308861
H    5.555440   50.386887   15.570605
H   32.189522   33.339325   69.890640
H   11.660903   15.635017   58.144920
H   98.655334   91.488098   82.200912
H   27.193699   96.679901   86.830254
H   79.881943   75.819038   89.950653
H    6.517700   57.157349   80.630127
H   54.257210   14.536928   50.588120
H    4.036293   54.638885   75.676895
H   77.363754    5.164062    9.265099
H    1.170307   35.784470   64.142189
H   12.874550   33.106709   95.363205
H    1.596577   16.111057   92.294090
H   25.306545   42.579350   91.652359
H   78.609367   47.101608   66.276344
H    3.635328    5.145479   30.236679
H   87.566147   80.420929   87.585411
H   64.038734   47.955566   84.982567
H   94.203018   71.212273   56.870583
H   35.866371   14.038155   24.213133
H   28.706766   56.772854   88.466560
H   24.350670   43.880623   84.449295
H   56.954174   78.732948   17.387581
H   29.384480   66.845787   89.968391
H   35.622097   90.245789   12.854398
H   62.210342   94.092407   74.359093
H   70.277885   80.226273   82.709709
H   96.039032   22.564983   12.804522
H   50.524181   77.947548   43.617901
H    2.394087   43.320835   98.821655
H   51.010757   50.746349   23.169943
H   18.685757   60.410259   20.002874
H   56.788692   96.801208   77.915619
H   52.894897   16.839405   51.634476
H   32.492325   80.634636   94.960487
H   46.117298   19.129944   52.184708
H   83.741592   49.918228   27.576166
H   13.139944   79.110779   30.915524
H   48.631836   46.526543   66.381294
H   56.682594   21.636202   84.097992
H    5.861431    2.174583   57.377625
H   20.572884    5.386355   92.614113
H   92.753860   46.865211   59.893456
H   66.971901   54.885483   55.454891
H    9.153248   84.738159   83.510048
H   80.923645   20.593954   46.575344
H   49.393150   36.278275   49.765594
H   42.662548   35.307564   58.179459
H   19.284237   95.409210   59.769363
H   23.206230   74.300026   12.669717
H   96.371979   52.700310   28.475473
H   97.444496   88.833069   42.524120
H    0.096871   80.754768   36.993958
H   47.725990   42.171860   42.583942
H   30.032730   43.283108   80.956177
H    9.305002   25.338139   44.023445
H   62.307175   24.608788   77.899506
H   64.884430   31.187975    9.244869
H   13.418835   26.140724   18.018881
H   36.858131   42.815907   47.983524
H   58.473427   38.737225   33.284142
H   61.191353   73.431442   65.401939
H   94.648979    6.793066   58.319656
H   33.760658   24.592037   27.561762
H   16.570560   72.551888   72.507271
H    3.606365   31.164438   68.584984
H   80.281364    8.344644   63.118988
H   40.781166   71.811684   67.817596
H   27.676125   54.874100   63.953705
H   72.816177   32.868408   93.101227
H   24.638485   70.789207   25.658375
H   24.880571   87.322014   93.133736
H   14.410654   17.030695   93.474457
H   60.058842   45.851036   47.646858
H   95.643036    4.101212   76.257568
H   27.044058    5.194263   41.433861
H    6.951173   36.142776   21.170321
H   16.729130   23.003469   80.565544
H   95.741432   10.389943   95.892189
H   86.324081   67.606667   42.381416
H    7.326056    6.845951   58.786926
H   80.914574   32.834091   70.820480
H   19.268389   73.738525   81.175743
H   39.576897   79.328239   20.164059
H   50.907677   25.919891   49.051365
