100
TIME:    0.219, STEP:   219
H    2.512753    1.937973   98.945511
H   95.178307   16.618572   91.815002
H   83.527161   89.659828   20.768448
H   81.513367   23.627695   28.158777
H   93.209488   90.311340   59.767189
H   24.620358    0.975296    0.433303
H   41.492481   76.126167    7.578660
H    2.673330    7.548879   88.086082
H   48.244560   65.237427   86.301903
H   68.855675   19.531185   16.264864
H   79.884186   75.054504   18.654621
H   47.482944   34.667870   77.340553
H   29.332146   48.457642    3.362518
H   44.238377    4.402040   73.906700
H   83.166466   50.460098   40.245441
H   92.718063   92.581734   14.860737
H    6.459087   96.479927   93.294441
H    5.824611   84.050583   91.953903
H   48.674477   87.540268   74.899582
H   86.721260    0.940207   31.128641
H   51.280777   34.415390   51.297722
H   83.346901   44.388992    0.607545
H   82.820061   92.841103   26.084843
H   98.694031   39.308323   90.809753
H   21.750433   68.805717   38.175552
H   45.653233   21.085567   68.645103
H   43.194302   33.373180    4.312049
H   14.062500   66.661362   74.014572
H   15.933282   68.961388   46.819641
H    9.391351   85.419449    0.798940
H   24.716585   41.681206   92.082176
H   79.585205   46.459808   78.990166
H   85.783997   52.458946   17.526205
H   87.355247   53.652618   62.525124
H   75.328239   42.365524   38.063751
H   91.596031    1.689093   19.890783
H    0.804371   96.514992   25.721508
H   54.937126   54.945911   37.895329
H   40.875149   75.832985   21.136314
H   42.565968   91.680992   55.265320
H   20.275753   63.692898   47.498730
H   11.938705   21.685762   13.089082
H   13.127847   64.813217   17.292007
H   65.374817   16.441912    2.144595
H   37.658905   23.251213   74.847839
H   75.154457   67.321098   84.177101
H   38.392506   37.554852   29.494574
H   56.251110   97.637268   82.128433
H   71.429497   14.312092   35.737907
H   30.482916   34.082714   68.346695
H   43.527187   48.500977   55.727161
H   15.775998   43.417511   59.686249
H   13.422060   23.278564   90.150826
H   71.614578    3.628903   41.479755
H   23.324722   77.703964    2.264479
H   93.840256   12.301945   85.171524
H   10.136177   83.227684   76.816124
H    9.752241   56.204811    7.913879
H    7.549766   48.022202   94.670532
H   44.566978   44.621368   57.379532
H   73.515305   68.384872   97.321411
H   91.138397   25.906937   85.445724
H   89.087517   92.219017   18.533905
H   58.078636   42.985786   21.194548
H   41.014542   43.353207   15.955880
H   87.891945   31.386005   59.134853
H   69.997795   55.932323   77.635422
H   65.237938   30.062538   76.672066
H   67.818779   34.050377   46.497852
H   34.823059   59.160057    1.270241
H   15.078211   80.503639   59.520847
H   55.908733   44.257378   72.656593
H   92.712158    7.474957   56.134060
H   25.370598   35.520832   90.192787
H   72.729538   28.955309   17.999588
H   30.835562   21.608027   81.193344
H   86.838837    7.562646   94.907776
H   42.269348   36.400791   26.534405
H   72.051094   52.859409   20.130383
H   88.785294   97.026695    2.054203
H   15.167521   31.547148   93.078049
H   57.755611   45.657791   68.468079
H   31.652969   10.912717   50.758484
H   65.236237   30.901707   43.426949
H   41.666565   35.185463   26.522762
H   46.254765   17.096457   56.991825
H   81.781227   87.429832   33.985943
H   59.480637   87.760460   93.462120
H   60.227974   81.978828   26.409130
H   46.972908    0.276193   32.040615
H   32.984959   85.256699   38.086620
H   94.490410   11.977251   37.697281
H   99.335960   34.193306   35.857506
H   68.395760   26.516176   41.584545
H   52.805531   30.112934   21.119324
H   12.010132   87.083427   56.137321
H   45.218925   80.248421   24.594078
H    7.669341   18.102325   52.531319
H   98.279564   37.794315   26.707348
H   52.842144   73.078285   76.593124
