100
TIME:    5.523, STEP:  5523
H   43.824135   15.534650   94.089554
H   47.942909    4.145938   26.347935
H   74.694717   71.250809   58.515072
H   82.403625    5.101994   37.428436
H   45.702042   15.450228   15.954250
H   42.375721   95.224617   25.707247
H   63.508030   34.277180   22.358873
H   85.789383   66.410599    1.089646
H   17.862053   55.279480   52.434547
H   23.910959   95.685463   23.964071
H   86.519028   88.472595    7.746540
H   45.044464    0.530294   99.796425
H   91.632889   27.604145   76.228691
H   81.615135   88.052437   77.543221
H   47.679314   76.690964   85.286987
H   79.455673   28.667374   74.583710
H   79.980263   47.273556   76.168823
H   19.173368   26.088161    8.070456
H   31.291042   10.048602   54.333843
H   43.716766   88.526649   92.364174
H   36.534065    6.384606    7.341000
H   91.875732   51.415848   48.943802
H   12.003449   49.704018   74.330566
H    5.891289    2.899386   96.886719
H   32.049103   48.158875   77.328468
H   21.369371   63.387245   71.059006
H   85.824600   12.891783    9.550354
H   66.526131   14.234657   49.335129
H   31.263588   50.181583   96.097717
H   12.769978   54.145531   22.451065
H   33.419632   17.313900   72.416756
H   14.482685   99.919693   87.972298
H   59.390972   64.393333   95.352409
H   11.461082   67.572746   39.075233
H   43.485077   41.423721   61.038933
H   52.742390   18.013683    2.062431
H    9.526917    2.270347   43.656048
H   35.716396   57.882633   12.184998
H   11.943624   61.080009    9.092775
H   42.988438   95.138191   72.573387
H   57.793610   45.689430   72.465187
H   35.244713   59.734520   62.270214
H   58.813671   96.619736    0.406721
H   26.681675    5.346245   20.745935
H   77.575829   13.983666   28.728838
H    6.831807   68.259598    5.598971
H   84.883102   25.197842   78.481392
H   56.534374   52.255081   10.309821
H   26.473244   75.034424   24.158779
H   41.711689   14.794943   97.379196
H   43.123249   36.433838   11.648318
H   73.540092   51.246769   11.486481
H   23.435268   54.032959   82.102287
H   48.789978   17.088715   75.531395
H    1.045017   42.614437   47.324230
H    0.474600    6.724063    4.610855
H   46.385338   30.183113   81.270653
H   14.801768   55.308586   71.295395
H   25.864180   72.129341   87.479561
H   94.558411   52.305080    6.523323
H    8.095369   21.727310   83.779259
H    2.895578   76.534775   45.456848
H   49.017429   30.403887   54.741760
H   22.293682   71.849258   77.191483
H   51.541077   19.730915    9.901809
H   62.059349   67.708397   72.746193
H   44.448181   39.306782   33.713455
H   98.854210   33.404209   30.233938
H   32.167744   52.938774   13.838902
H   42.280602   25.932606   90.103271
H   46.652962   19.615799   95.894936
H   18.570812   68.227310   60.991188
H   46.881729   45.115227   20.137573
H    8.628117   99.868919   74.995781
H   28.457731   36.514347   20.079006
H   56.227982   61.546638   24.301996
H   68.408409   47.849598   88.725273
H   91.460907   89.584999   19.453737
H   26.361187   37.295933   79.303810
H   28.669891    8.154756   45.109802
H   18.948290   86.419632   10.086068
H   55.727249   80.288315   24.942045
H   67.218178   99.483459   55.927029
H   30.123835   84.773972   58.975399
H   83.404579    3.417113   12.359409
H   24.178570   11.922313   25.317245
H   36.023415    1.785710   86.901413
H   44.854027   63.118687   38.312813
H   70.301132   86.660744   83.019783
H   78.031677   82.044724   21.651842
H   50.046593   71.656540   50.097454
H   86.944969   10.861905   38.761765
H   39.488327   93.236732   46.106647
H   81.044228   48.247143   99.206627
H   61.102226   55.013721   42.998051
H   50.098755   77.634613   82.178680
H   24.212465   84.634453   19.556580
H   27.137877   63.262726   67.652306
H   45.610016   60.657780   82.428001
H   82.265579   36.905315   65.693512
