100
TIME:    4.881, STEP:  4881
H   87.240639   74.408791   94.677322
H   65.673927   69.359329   85.868591
H   63.654617   25.062363   66.051872
H   82.295868   31.554028   72.619881
H   51.452377   63.991180   33.359741
H   52.333500   95.920143   62.128849
H   97.157707   90.925720   72.153564
H   36.249321   10.871045   60.037624
H   33.643639   17.005280   92.845039
H   41.454720   86.467293   98.822662
H   46.236298   62.640171   69.586090
H   69.548409   68.349983   45.493797
H   32.600327   66.426537   40.021240
H   13.403075   90.031258   28.686319
H   39.871788   34.036469   16.146626
H    5.268936   84.818863   27.875725
H   31.606239    4.811853   17.725035
H    5.444902   57.323627   30.324842
H   21.291630   83.117355   20.512659
H   61.011856    2.162474   48.653786
H   74.631264   70.299042   24.765888
H   30.326569   50.563583    3.616044
H   20.575645   54.925362   92.698334
H   65.543701   95.219208   44.567795
H   55.011261   99.070953   72.587135
H   24.295969   82.362534   31.431292
H   41.184845   39.579762   96.812233
H   20.697498   84.268295   28.111788
H   17.304085   91.934746   26.444183
H   88.152954   70.034874   71.414162
H    8.152413   59.743404   23.209755
H   73.946571   17.656456   47.405418
H   14.167995   11.365343   37.515984
H   84.335037   26.408112   66.122383
H   59.442993   89.953812   21.947426
H   96.934998   67.729500    4.081638
H   47.950096   25.783516   93.069138
H   62.249249   69.630760   66.878929
H   39.044468   75.068901   71.307175
H    3.458165   55.241051   22.060888
H    1.670459   23.662802   57.339947
H   92.943993   30.919260   32.112789
H   53.283749   92.769852   54.032860
H   67.674072   94.570251   57.973785
H   33.265377   39.311691   73.790794
H   15.115992   56.014423    2.989637
H   79.867477   90.282738   72.319618
H   56.500088   45.642685   70.586555
H    7.708723   28.205357   49.770042
H   28.246891    5.023291   42.280182
H   43.172230   98.414032    4.880408
H   42.339378   10.818686   53.634384
H   10.117953   50.310425   19.387705
H   63.655624   27.565689   47.200951
H   52.162689   86.350105   41.862881
H   99.673447    7.399384   26.466049
H    5.686954   48.707619   20.211296
H   62.606094   15.937317   87.831284
H   75.230232   45.003647   36.765900
H   36.922916    2.957069   24.783333
H   67.597870   51.581898   33.834625
H   25.679079   82.510422   74.505539
H    5.430985   74.212326   98.765625
H   78.209694   68.352036   94.618820
H   26.056982   71.007568   50.115543
H    1.498535   99.624229   34.786140
H   95.956299   17.111977    2.716236
H   43.201790   96.686234   99.542625
H    0.169132   99.068810   54.105881
H   29.275709   93.642090   91.455139
H   67.038734   63.296799    3.595660
H   71.505585   89.533920   13.985335
H   88.740646   76.871407   36.599991
H   22.759052   40.500256   13.141239
H   97.504646   35.598408   71.410858
H   41.048859   20.398634   67.498917
H   10.117754    3.493283   77.371544
H   61.298580   31.563400   83.999260
H   95.575584   39.181690   72.142830
H   60.151733   43.124187    0.418818
H    6.385594   79.777847   71.714928
H    7.552011   76.104202   78.631126
H   26.608660   88.746887   94.785141
H   85.954697   29.837107   17.613480
H   14.664769   43.576019   74.594231
H   38.956051   88.341759   80.734589
H   93.145668   48.464462   56.288467
H   34.522034   14.510098   44.983047
H   56.978378   22.405848   88.270515
H   34.792477    8.456696   98.702438
H   23.773338   36.991810   36.539593
H   39.443470   62.577087   26.531279
H   98.335197   73.975883   96.459763
H   18.994606    9.300973   55.918385
H   72.201256   12.518829   28.245682
H   97.072144    2.986849   15.339186
H   75.171623   47.791164   56.478241
H   24.781904   57.796478   77.928459
H   76.193573   57.890369   36.202309
H   42.388134   53.377529   27.537970
