100
TIME:    0.657, STEP:   657
H   72.892250   61.771065   98.544510
H   82.994560   40.366772   19.443510
H   91.052612   21.171104   15.625610
H   81.586884    5.580980    4.150169
H   89.286362   25.418968   47.890877
H   17.828403    0.498586   43.810665
H   18.537537    5.700544   41.831028
H   68.247391   45.440311   47.871025
H   37.477684   23.125641   58.732445
H   56.885796   25.818546   33.417679
H   39.142487   92.678497   76.463387
H   30.764545   56.622673   46.162727
H    1.471272   21.958160   59.827675
H   22.550907    3.051585    7.237271
H   88.493095   11.338328   19.190565
H   75.107437   54.271923   78.503403
H   71.244728   25.445450   33.172966
H   15.183904   62.750748   76.769333
H   55.494835    5.913739   97.977188
H   74.864998   91.757111   61.009895
H   25.289230   90.810638   39.411385
H   25.345387   44.967102   63.314335
H   76.972130   89.278877   13.552055
H   57.999115   44.561436   58.281303
H    6.086340   34.069469   41.410194
H   43.646465    8.033591   27.592943
H    5.424528   15.165900   13.003569
H   77.104759   87.105728   88.490707
H   25.457062    8.700383   26.115101
H   26.185266   74.579056   35.617764
H   41.946262   80.959251   57.422325
H    7.240585   34.359604   38.442284
H   16.635670   20.412889   56.984703
H    5.861703   13.512473   44.072395
H   64.441063    9.256040   64.733749
H   29.679035   36.096447   18.383688
H   42.813747   80.474953   60.234325
H   36.835274   46.929234   68.803001
H   21.183578   66.482979   79.156769
H    1.311762   50.677555   89.725517
H   90.343292   78.723686   57.821163
H   72.573753   41.344833   33.666996
H   16.899961   67.439774   48.928421
H   37.404999   23.781900   44.970345
H   99.665993    5.970227   12.328619
H   69.560493   75.554985   85.894722
H   43.017384   61.183834   33.237251
H   56.274502    2.147800    9.229323
H   84.234795   78.036118   18.265604
H   39.669178   40.749355   37.713089
H   43.494495    6.214167   60.344181
H   37.061195    2.773868   30.931137
H   22.507837   25.818237   64.713997
H   61.475101   96.483116   60.808002
H   88.455811   16.100588    5.981159
H   94.388290   11.841469   70.260971
H   37.902328   70.589470   18.473747
H   77.137146   14.841560   96.631790
H   42.092659   66.528397   61.046307
H   15.664121   78.287369   44.922935
H    1.144310   48.016647   63.169579
H   75.592926   21.830093   65.629593
H   18.796505   62.351128   88.485207
H   88.154366   45.368401    9.301527
H   58.401276    8.370159   56.747047
H   60.984779    9.611652   85.032829
H   34.856743   71.075012   98.781540
H   34.982414   55.111862   97.611000
H   89.646599    2.578493   19.025944
H   43.695206   81.189110    0.349192
H    1.168689   50.701092   54.267735
H   19.794687   29.721092    4.723585
H   64.154205   85.808693   44.902691
H   15.729890    7.802854   64.161140
H   93.848923   29.578531   51.203175
H   41.191410   49.680817   51.721165
H   26.605965   69.600945    2.659557
H   62.847382    7.760723   50.724789
H   93.043495   51.577976   25.014240
H   67.305008   73.173820   64.320038
H   23.738834   36.078625   19.255981
H   90.618279   48.518265   31.840393
H   59.365498   18.223211   92.475952
H   95.364777   68.381935    3.420418
H   20.339083    7.787322   84.063744
H   36.171329   33.186680   87.407234
H   11.034277   55.583672   54.871410
H   66.531570   52.692924   88.910759
H   69.317329   57.591286   22.825184
H    8.248554   82.251251   47.699703
H   50.909702    8.908316   47.336376
H   26.898302   44.918465   46.041443
H   27.437840   47.316063   69.742088
H   10.728790   53.085487   71.115730
H   45.233295   90.879181   31.182777
H   48.187103   69.786919   33.514183
H   10.453043    5.384352   99.404099
H    9.277436   21.831635   45.523827
H   77.414146   39.682362   90.018105
H   80.043381   61.829563   34.407822
