100
TIME:    2.539, STEP:  2539
H   45.619781   89.182152   96.821487
H   30.643394   42.405594   38.159290
H   23.397917   56.569702   93.532921
H   81.902771   28.044088    0.991124
H   72.429459   76.269562   96.862762
H   88.647102   98.457405   30.191275
H   19.901833   32.783134   89.005959
H   20.325905    8.258331   75.071953
H   91.214470   42.178955   40.266109
H    5.457281   52.839638    7.112810
H   64.083435   68.404724   95.180344
H   58.936104   50.957550   12.200426
H   81.756172    8.094362   72.772423
H   29.364723   97.249947   50.459881
H   11.383663   43.233276   28.724413
H   99.435989   89.658783   22.282526
H   19.935623   49.905128    4.523244
H   55.402046   71.229027   11.521961
H   84.810768   84.867401   97.127975
H   24.114098   51.894596   89.199593
H   13.608765    3.451209   88.330368
H    5.796753   47.454544    3.058980
H   51.844719   73.972694   59.706696
H   83.140884   67.133026   18.505135
H   38.774040   84.807709   55.294884
H   35.016994   51.953648   51.190765
H   43.138161   36.933765   50.350079
H   18.308737   74.951653   50.698795
H   66.378845   79.450050   37.151665
H   98.350609   28.000015   85.232079
H   15.980531   49.731915    8.501623
H   26.071053   82.361702   64.216118
H   49.201855   82.717216   26.530127
H   85.379646   41.038498   64.786957
H   17.658802   66.991180   79.335457
H   93.310226   83.936516   11.911885
H   23.322479   11.551924    8.528560
H   59.047798   12.483143    1.612578
H   37.901253   26.095457   98.264648
H   24.048349   74.491112   37.797359
H   61.727070   43.302029    2.162735
H    3.430313   25.809380   22.085493
H   33.110729   78.725571   84.867912
H   17.226858   55.325699   28.984266
H   36.416286   31.715031   73.379982
H   45.330982   11.344318   93.479195
H   61.568233   62.917206   49.830368
H   56.375011   21.524710   25.676826
H   39.246620   22.169712   43.192810
H   79.135246   69.391899    6.084504
H   43.350910   24.519670   80.187653
H   28.522738   28.138584    7.380346
H   61.548653   36.730713   55.409477
H   17.896992   65.784599   43.854950
H   38.630791   81.087723   21.950087
H   96.743088    9.863583    6.193253
H   57.212086   16.285545   97.467369
H   36.997406   37.110687   48.157425
H   90.522758   46.048092   16.562445
H   91.471405   22.943724   91.395393
H   19.862707   60.494907   16.435955
H    8.799583    4.310303   80.473282
H   46.451939   34.012993   59.372971
H   17.387529   55.606026   58.209667
H   33.098804   58.059216   32.012985
H   45.370369   16.051674   96.310844
H   83.859535   36.142712   89.644669
H    4.979622   62.745361   87.581482
H   83.445763   67.349983    0.989818
H   81.823792   75.848213   96.386719
H   41.408409   22.646196   31.692822
H   64.613892   67.260605   42.515587
H   41.444504   92.717918   96.644768
H   74.315758   88.706543   52.308235
H   84.586693   32.257084   93.870956
H   85.681465   70.299919   25.087448
H   97.479370    6.482859   35.953419
H   51.267162   84.701973   54.660694
H   83.266739   46.060886   46.007454
H   75.007973   70.675949    2.184158
H   60.568439   55.548779   31.738270
H   31.827690   60.809158   74.467751
H   78.443954   49.636505   71.727112
H   24.830364   29.427095   31.520203
H   28.701660   90.068069    1.624952
H   92.854370    2.315255   18.099255
H   36.728798   18.746948   44.612686
H   96.828049    2.016084   69.341103
H    8.373663   52.804482    7.427603
H   41.856899    4.812370   14.981492
H   27.928986   10.530919   87.080765
H   66.151367   86.456352   81.901833
H   48.190845    3.711421   15.339048
H   92.631416   67.243233   98.010796
H   12.692627   22.301224   74.430504
H    3.632579   95.469551   36.306442
H   61.068405   13.388373   91.169136
H   16.187376   37.855743   15.410124
H   87.761467   47.794926   32.370178
H   96.921768   13.486988   53.143829
