200
TIME:    0.867, STEP:   867
H   28.737429   60.394115   26.060888
H   33.552429   42.031643   15.351324
H    4.996296   96.581841   76.231316
H   38.977386   84.302284   28.103802
H    8.553123   99.620468   44.643749
H   69.221191   35.797230   46.991138
H   12.443336   54.859253   61.787434
H   16.939346   15.960345    2.816783
H   12.891041   78.106392   32.423759
H   88.789612   66.115265   71.341087
H   34.047798    7.987958   12.775459
H   33.370529   58.758373   42.617733
H   26.563114    7.817460   35.594017
H   74.768738   55.852283   72.479210
H   89.350540   76.771271   41.435871
H   11.024692    0.132388   40.797291
H   13.704267   37.083603   84.991669
H   21.673960   13.309481   32.357765
H   85.886833    7.002618   51.713848
H   92.051025   71.094139   13.165026
H   65.609726    8.057314   97.115089
H   76.070396   72.780357   46.412575
H   76.229462   57.982658   34.091690
H   21.888784   93.775620   89.620010
H   30.499031   37.920956   23.037312
H   18.142069   90.162514   86.248215
H   11.038082   71.377708   74.291595
H    8.900214   95.994522    2.381078
H   37.476624   37.471748   34.666927
H   64.715981   37.561264   76.936920
H   12.542893   77.644417   16.961390
H   20.524269   78.201645    9.040368
H   11.973541   22.476883   80.837746
H   75.675163   64.261978   49.249596
H   17.898842   63.892879   29.449169
H   12.577971   35.626312   86.664146
H    4.260315   60.896111   90.662025
H    1.901186   60.974213   86.976845
H   29.864861   23.949076   58.368740
H   84.069725   37.110111   39.204193
H   80.690872   75.933815   22.335789
H   44.547714   29.958893   21.238867
H   65.412491   73.378418   73.610214
H   35.884445   93.686485   41.172310
H   50.200314   95.424889   66.990486
H   32.236385   97.520996   49.506943
H   91.789719   95.493515    9.925601
H   74.851257   65.541039   25.107193
H   11.328689    4.958663   61.618385
H   39.679779   20.631021   79.186867
H   63.292877   62.560074    3.020417
H   97.170418   46.489849   77.021996
H   69.088707   76.491844   16.120909
H   13.074739   95.415222   90.988190
H   50.659317   62.440651   70.495544
H   97.268364   56.902615   99.179565
H    3.641137   19.118141   42.928806
H   74.258835   73.155113   93.986061
H   14.950836   86.589615   22.290943
H   28.601715   92.468422   55.403496
H   48.388866    3.143477   23.917063
H    1.205536   17.910200   53.873077
H   88.721001   38.194649   63.731674
H   39.318230   66.046875   17.666706
H   81.427483   85.426285   43.569202
H   14.143841   40.920128   44.133530
H   62.754494    9.936171   98.789192
H   93.830238   92.875450   99.685074
H   38.824600   14.326253   54.043762
H   41.627716   52.558189   50.949108
H   58.190105   87.436623   90.052750
H   14.518801    7.341332   40.375847
H   97.393692   36.502804   78.500404
H   28.292423   95.182892   78.826515
H   86.779709   11.021249   38.131203
H   69.161926   96.941010   58.780293
H   92.777451   53.291920   63.276527
H    3.332182   17.387268   26.527306
H   16.300659   57.623589   21.040813
H   58.827110   87.170113   64.526581
H   69.979431   19.505112   91.824936
H   54.206680   57.313812   68.473961
H    8.553484   20.543964   71.934494
H    4.227690   82.362236   14.286688
H   16.580624    5.954148   40.013401
H   42.331264   63.836594   14.730744
H   63.956654    4.090638    3.208793
H   70.117332   95.208450   35.091106
H   84.877304   73.583275   79.428772
H   20.303677   14.151885   47.967510
H   14.959916   40.305473   77.965630
H   79.687973   94.036636   12.048862
H   77.046013    9.790697   77.872536
H   31.912075   71.907532   86.320953
H   41.011856   48.444824   94.053619
H   43.306526   41.727726   99.581573
H   87.810890   92.591682   25.332535
H   95.214020   39.136669   55.678989
H   22.810524   63.497124   55.103245
H   78.106323    8.115312   27.403482
H   37.840786   97.762268   98.464363
H   13.886658   86.142509   62.406036
H   36.176521   14.255482   39.264267
H   52.003609   69.097122   15.061906
H   24.507584   19.232929   45.415573
H   12.246040   96.075279   14.535339
H   89.804550   36.926510   52.192276
H   61.056328   58.347996   94.496925
H   88.730835   32.175137   29.451237
H   24.508207   19.318304    8.605963
H   55.443913   90.618225    1.236991
H   11.169433   79.112244   97.653122
H   46.204105   87.550560   80.297241
H   61.100243    5.880050   58.786083
H   42.926659    8.077415    4.787985
H   88.450546   87.456139    7.220205
H    6.795742   17.271584   91.489487
H   37.590000   57.858070   21.445396
H   42.673519   81.253853   52.552185
H   87.329208   59.188839   72.733215
H   47.098579   25.925976   66.974136
H   91.236137   12.626858   66.631111
H   47.352669   95.378311   42.629784
H   94.839806   44.756481   90.407677
H   58.154976   93.428406   72.076096
H   70.692863   79.507332   13.425379
H   79.801567   52.117508   46.840027
H   61.714005   92.487541   40.298054
H    0.183722   29.787735   70.601562
H   98.135597   21.177515   77.183456
H   73.919144   62.798309   27.372547
H   57.633560   92.270096   24.113186
H   90.390358   13.099430    2.039870
H   70.176170   29.078529   57.423679
H   35.400280   90.032944   27.605080
H   45.658424    0.822154   74.444412
H   69.930763   88.162254   86.551849
H   96.566444   44.643944   73.291473
H   62.701950   53.102028   71.401794
H   43.787582   79.019478   78.035507
H   81.658638   44.630161   35.163803
H   28.374022   60.061634   60.863274
H   34.849674   68.300606   78.235817
H   28.982597    3.831293   88.514473
H   69.773888   48.972633   69.571182
H   68.914032   72.777618   99.816841
H   59.560509   94.031990   42.792458
H   25.531830   50.079361   65.227684
H   81.947113   38.613934   91.711388
H   29.448988   95.520172   66.533226
H   54.120922   71.958313   46.610794
H   60.181049   89.760056   28.503567
H    5.303350    8.394016   81.454765
H   26.484194   15.534753   60.457794
H   38.475456   70.438507   72.095886
H   82.115204   45.083584   73.352104
H   65.874405   79.687645   88.179977
H   54.960361   26.599922   24.413465
H   83.684982   99.371674   79.351883
H   56.650131   31.360931    2.302555
H   60.114872   58.936554   66.744934
H   14.164921   19.807020   30.112164
H   92.208595    7.232814   36.971344
H   34.289680   38.599030   44.373943
H   52.950729   43.363560   15.985263
H   22.716330   44.489166   58.874352
H   64.103180   87.425667   58.868553
H   24.179939   59.459743   73.939987
H    2.593145   26.131187   35.376400
H   55.086239    5.728106   83.342712
H   67.386780   13.090302   35.923454
H   24.502247   42.158154   59.383526
H   49.787487   50.511635   72.781998
H   63.505001   59.541683   88.786293
H   42.295990   90.319885   69.749908
H   20.262352   51.051754   23.899044
H   28.976585   72.508766   13.135433
H    7.287024    9.798813   72.897568
H   59.566177    6.803465   61.802254
H   56.475201   61.180885   95.229935
H   69.970589    7.658610   27.141584
H   31.874390   30.871426   92.505836
H   36.765007   89.505028   18.489204
H   65.135307   26.380516    0.256945
H   93.631218   61.139442   75.813675
H   12.386327   41.514465   87.092262
H   53.184479   93.784988   13.157986
H   60.298531   93.783272   47.466312
H   88.460152   63.969437   73.709290
H   61.015354   54.862583   73.624710
H   77.771873   10.280132   74.823982
H   42.512905    1.968575   16.638117
H   18.027584   32.440617   72.170425
H   24.149910   88.554298   45.949242
H   63.377766   26.249819   19.765303
H   76.858902   11.921981   20.976168
H   13.629018    2.656362   24.629560
H   10.687272   84.944824   29.284023
H    3.552130   13.366291   49.975426
H    1.468157   13.750066   89.037804
