100
TIME:    0.144, STEP:   144
H    7.584560    8.815793   99.014175
H   97.264565   12.552200   87.084015
H   82.238556   84.263939   21.649071
H   81.500778   26.717886   32.269798
H   93.881256   84.299759   61.800804
H   25.783363    1.056925   93.006065
H   45.422955   71.062157    1.713491
H    8.568182    1.060564   94.971992
H   50.088203   72.448349   91.022591
H   70.905312   18.454582   13.327738
H   86.860504   72.036697   25.878990
H   50.345684   30.908485   82.679222
H   34.102776   52.995224   10.816812
H   47.951984    4.633282   68.199532
H   82.254372   57.158897   43.850903
H   95.733429   99.141701   21.086407
H   12.488817   91.520058   86.465752
H    4.221938   87.697815   94.554001
H   47.506607   84.394287   70.947937
H   88.751442    2.512911   26.011988
H   55.731384   41.882088   53.333054
H   76.155434   44.290001    6.993845
H   83.821419   93.451073   28.230896
H    5.662394   38.408817   96.379593
H   24.432642   74.753212   37.621658
H   45.995411   23.322029   75.674065
H   49.661930   36.491123    2.823817
H   20.390511   63.160610   71.535782
H   14.302356   62.156734   50.365021
H    6.515594   87.275681   94.836601
H   21.766298   34.955513   98.017082
H   74.849640   48.531761   85.933296
H   80.501404   57.946388   10.769612
H   84.186378   60.525940   65.684837
H   77.192482   48.034927   33.496986
H   85.075188   95.797600   20.148848
H   93.610817   99.261421   19.811684
H   58.036758   56.318630   32.603008
H   44.247150   77.434013   28.324921
H   49.629833   98.701942   49.364174
H   25.400990   61.119694   45.731190
H   18.679276   18.319483    9.565589
H   12.481971   64.363464   11.874769
H   70.164169   15.185063   94.811295
H   44.164299   26.210369   68.429993
H   76.112328   65.911186   83.882988
H   37.600574   33.508793   28.853704
H   56.247105   96.864792   77.487854
H   69.236809   20.523373   38.729965
H   28.909925   32.941166   73.592667
H   43.530621   55.742226   54.940380
H   12.131341   50.377235   64.610001
H   11.866379   22.843689   94.506447
H   73.350647    4.852705   38.170124
H   29.295677   71.129333    1.628080
H   93.746414   12.380909   87.724701
H    5.381586   85.391762   69.683022
H   15.337101   63.287560    9.845785
H    1.634873   44.853333    0.428080
H   49.518265   38.856407   59.508705
H   68.784317   71.873032    3.169101
H   93.800293   26.605026   88.838898
H   84.000618   97.333382   23.679169
H   52.928223   42.577805   23.231024
H   38.037361   49.343616    8.971265
H   92.499336   35.114491   54.700268
H   76.015099   53.339664   74.014511
H   70.418678   25.773006   73.086632
H   64.081139   39.439400   51.201946
H   33.303856   55.387512    1.427955
H   17.460012   85.606560   60.420353
H   62.092548   46.746468   67.165718
H   97.602219   11.184559   58.057240
H   27.021408   40.267269   94.650261
H   69.113205   28.848593   12.313970
H   29.062300   16.801222   86.240189
H   80.029602   14.063171   93.580261
H   38.745712   41.304585   22.392483
H   68.456505   53.078564   19.294106
H   92.463425    1.111180    8.515450
H   13.699959   30.770952   88.595398
H   52.128391   45.167984   74.739441
H   26.907391    9.660876   43.615082
H   60.076805   24.483860   50.277382
H   45.318939   39.877487   33.792992
H   47.982822   14.339862   51.784191
H   76.772148   92.882942   30.409664
H   58.273285   93.765175   94.241463
H   58.671577   86.154778   27.022820
H   53.603615    3.362128   29.359545
H   29.915651   81.206635   36.502758
H   88.941170    6.336744   36.268486
H   94.523720   31.946253   30.055254
H   61.146843   21.966864   36.527973
H   54.102146   36.831188   19.396130
H    5.815420   90.045158   60.011147
H   51.172142   75.944298   28.907356
H    7.394039   17.463745   53.731232
H    1.852333   37.471020   32.989582
H   48.184399   75.004326   83.816635
