100
TIME:    6.171, STEP:  6171
H    0.003250   56.110008   93.496292
H   30.046452   39.261738   67.208107
H   85.838150   17.870369   50.906490
H   82.512390   78.404755    1.908512
H   39.897964   67.390289   98.384995
H   32.324879   94.522591   89.881096
H   29.548561   78.033592   73.033318
H   34.857864   22.472141   41.593449
H    1.932936   92.976807   11.643962
H    6.208197    4.990148   49.337345
H   26.243637   14.545912   45.327324
H   20.310394   33.010792   53.670326
H   50.282547   88.417458   11.840019
H   49.529564   86.055122   26.855824
H   55.558968   18.808685   54.138325
H   53.401596   71.990761   20.794132
H   27.872108   90.134789   35.158821
H   33.030972   94.558365   85.606483
H   41.381611   37.234818   88.474655
H   26.260040   74.762978   36.482964
H   98.080841   41.875134   89.751839
H   54.000122   52.276077   93.760651
H    3.350789   44.433876   55.791138
H   45.683346   10.651339   48.761738
H    8.874433   96.767883   82.114113
H   18.415422   44.229836   10.124622
H   29.946312   85.956070   22.408682
H   11.851077   44.481117   70.755264
H   45.353554    8.973612   65.465637
H   37.616001   38.107689   73.965500
H   58.924942   75.420540   21.149055
H   55.397923   82.013077   27.983650
H    5.033478   16.982618   53.729370
H   38.841759    8.187411   11.777140
H   27.377186   92.438683    0.498368
H    9.072306   68.767906    0.024524
H   71.677528   78.539673   94.716103
H    8.934793   46.022343   57.910748
H   84.592499   46.960381   46.296318
H   81.953903   34.474773   23.555490
H   13.507656   67.922783   87.731789
H   80.155655   65.802719   95.000511
H   64.394928    0.505784   47.211479
H   85.304474   16.222860   84.103355
H   21.367561   88.416153   84.179184
H   98.469231   80.619217    8.231569
H   89.945602   60.438065   84.700752
H   56.568981   58.929276   50.404423
H   45.413124   21.367943   98.309311
H   55.303211   24.658159   52.056183
H   43.077862   73.873184   18.479031
H    5.032011   91.116714   68.948372
H   36.877590   57.790283   44.467152
H   33.785400    6.514934    4.126265
H   49.450981   99.401337   52.836620
H    1.281732    6.042430   82.551392
H   87.466591   11.485183   42.900963
H   66.550201   94.112419   54.604965
H   76.969986   99.508369   37.734566
H   51.795540    2.110754   88.092674
H   48.972309   91.592056   33.256145
H   79.897072   70.503281   16.134888
H   93.009468   86.184853   10.306458
H   66.792404   75.379166   59.600033
H   77.261368   67.977676   70.247322
H   22.252094   35.494286   11.061362
H   92.457230   61.707355   64.998123
H   54.092613   70.463295   61.212086
H   64.465828    6.377617   73.199188
H   55.406517   58.526932   88.738770
H   26.075954   75.526123   88.123207
H   65.138870   46.721573    8.433127
H    4.630054   13.064262    3.521310
H   94.363075   58.855381   36.493095
H   59.698185   37.438847   69.201675
H   71.546532    3.075473   80.699005
H   27.241550   91.684776    0.185174
H   21.905132   47.214264   55.242249
H   57.433270   35.392551   86.531715
H   96.893875   72.855965   89.284081
H   31.629259   93.123489   48.814960
H    4.363616   84.490585   70.736839
H    8.203546   10.319531   17.637886
H   74.703804   40.225243   99.792320
H   51.852943   62.886971   49.543106
H    9.262981   35.724854   70.316147
H   79.301857   54.670815   17.800589
H   55.275658   11.263659   31.594124
H   83.748398   50.580544   77.719978
H   20.739122   55.385899   44.814873
H   76.565392    6.648542   63.782024
H   34.890408   59.597412   51.106552
H   81.026535   12.679112   96.217484
H   43.670467   87.560616   42.900009
H   49.899467   96.968338   57.888920
H    3.620889   52.045258   48.708832
H   72.777458   21.821157   82.289322
H   26.365870   91.799988   54.997162
H   14.740682   63.451054   28.151176
H   22.516085   20.277412    3.267890
