100
TIME:    0.339, STEP:   339
H   94.397621   90.933357   98.835648
H   91.840294   23.124767   99.384583
H   85.588928   98.293251   19.359451
H   81.533508   18.683390   21.581171
H   92.134659   99.929871   56.513405
H   22.759548    0.844691   12.317532
H   35.203724   84.228584   16.963015
H   93.241562   17.930225   77.068626
H   45.294731   53.699951   78.748802
H   65.576256   21.253750   20.964266
H   68.722076   79.882996    7.095631
H   42.902561   40.682884   68.798683
H   21.698936   41.197510   91.435204
H   38.296604    4.032052   83.038170
H   84.625816   39.742020   34.476704
H   87.893234   82.086128    4.899835
H   96.811470    4.415655    4.220241
H    8.388871   78.215012   87.793747
H   50.543068   92.573837   81.222214
H   83.472969   98.424164   39.315285
H   44.159805   22.468674   48.041191
H   94.853249   44.547379   90.390205
H   81.217888   91.865150   22.651157
H   87.544739   40.747532   81.898010
H   17.458899   59.289272   39.061783
H   45.104580   17.508400   57.398346
H   32.846096   28.384804    6.693222
H    3.937637   72.262558   77.980637
H   18.542542   79.848839   41.147034
H   13.992562   82.449478   10.338345
H   29.437044   52.442314   82.586327
H   87.162109   43.144684   67.881157
H   94.236145   43.679039   28.336752
H   92.425438   42.655304   57.469582
H   72.345451   33.294479   45.370575
H    2.029458   11.115820   19.477880
H   12.313867   92.120461   35.177074
H   49.977715   52.749561   46.363041
H   35.479946   73.271339    9.634671
H   31.263752   80.447472   64.707085
H   12.075375   67.810875   50.326794
H    1.153778   27.071810   18.726782
H   14.161248   65.532822   25.959763
H   57.711853   18.452868   13.877544
H   27.250065   18.516563   85.116394
H   73.621864   69.576958   84.647682
H   39.659595   44.028545   30.519964
H   56.257519   98.873230   89.553360
H   74.937798    4.374001   30.950716
H   32.999699   35.909191   59.953583
H   43.518757   36.915657   56.991245
H   21.607450   32.281952   51.808136
H   15.911150   23.974365   83.181831
H   68.836868    1.670819   46.775166
H   13.771248   88.223373    3.282717
H   93.990402   12.175671   81.086441
H   17.743469   79.765160   88.229088
H    0.816374   44.872414    4.822830
H   17.013573   53.092392   85.458496
H   36.647881   53.845352   53.967613
H   81.084885   62.804016   87.964722
H   86.879364   24.789993   80.016647
H   97.226555   84.036034   10.301324
H   66.319038   43.638557   17.936186
H   45.778030   33.768551   27.131266
H   80.520119   25.420429   66.230186
H   60.370110   60.080578   83.428879
H   56.948753   36.925461   82.408760
H   73.799004   25.427940   38.971302
H   37.253784   65.195946    1.017899
H   11.267328   72.338966   58.081638
H   46.014629   40.274834   81.441994
H   84.888062    1.539593   53.056973
H   22.729301   27.926779   83.060829
H   78.515671   29.126055   27.096725
H   33.672779   29.298914   73.118393
H   97.733612   97.161980   97.031799
H   47.907166   28.554024   33.161907
H   77.802437   52.508762   21.468426
H   82.900284   90.491661   91.716095
H   17.515766   32.788769    0.250281
H   66.759544   46.441483   58.433388
H   39.245457   12.915662   62.187927
H   73.490631   41.170261   32.466255
H   35.823669   27.679054   14.890094
H   43.491016   21.505871   65.324440
H   89.795753   78.704857   39.707989
H   61.412399   78.152916   92.215172
H   62.718208   75.297310   25.427227
H   36.363777   95.337891   36.330776
H   37.895847   91.736801   40.620800
H    3.369254   21.002062   39.983353
H    7.035152   37.788582   45.140953
H   79.993660   33.795189   49.675060
H   50.730946   19.363728   23.876434
H   21.921631   82.344658   49.939201
H   35.693779   87.135017   17.692833
H    8.109853   19.124054   50.611458
H   92.563011   38.311588   16.655773
H   60.294537   69.996620   65.035507
