100
TIME:    9.271, STEP:  9271
H   90.362457   71.826759   90.658157
H   44.433334    7.244967   62.672619
H   39.130856   40.896370   14.512854
H   83.032715   50.685722   31.987070
H   12.123083   15.868519   14.331272
H   84.251831   91.164131   96.883820
H   67.075356   87.360115   15.457455
H   91.203979   90.661514   56.962143
H   25.728996   94.923004   16.510412
H   21.534861   49.502827   70.717873
H   37.889191   39.279739   46.718147
H    1.991051   88.398064   33.008598
H   52.568787    0.827895    3.781442
H   96.037506   76.500069   62.768513
H   93.211555   41.901405    5.059374
H   28.756969    0.853272   63.466858
H   78.588295   95.176064   17.364058
H   99.321335   43.711983   78.147049
H   89.666122   67.285019   51.792767
H   42.737728    8.933893   47.545372
H   14.122368   33.260063    5.613279
H   51.200146   56.391373   29.766968
H   61.960991   19.227774   67.096222
H   57.649059   47.736298   18.528795
H   98.001083   50.924522    5.006008
H    3.892218   52.794418   18.439253
H   62.631325   57.094082   83.917587
H   50.281120   89.178650   73.223930
H   12.760104   90.229881   18.926769
H   56.484108   61.382217   20.406387
H   80.928459   53.403675   75.887085
H   51.133869   96.365555   41.001152
H   23.393593   90.172287   33.001854
H   69.823853   24.090759   81.179314
H   50.226219   57.725197   89.107681
H   78.549805   11.576863   90.280251
H   69.007751   65.010994   38.983784
H   80.803780   89.289330   76.669365
H   53.741634   79.418358   45.883392
H   89.968872   44.263580   67.458694
H    1.644826   74.291489   60.765224
H   18.904648   77.959396   53.260845
H   91.073395   19.102684   71.125877
H   87.363075   68.262794   87.203194
H   52.464714   66.117989   49.457645
H   58.454811   39.740948   20.825792
H   14.173987   29.027464   14.462450
H   56.753475   90.858292   42.214100
H   36.030220   64.624916   74.651337
H   20.381979   71.847923   35.304325
H   42.903721   74.591942   51.101776
H   55.699825    3.458632   65.452614
H    1.171625   75.765137   64.428940
H   61.992393   55.942764   40.919197
H    2.623634   71.071701   79.193985
H    5.142778    2.781531   77.020065
H   83.992950   22.035942   37.736778
H   35.717712    1.355204   74.755150
H   21.462879   30.502050   99.750282
H   47.227734   40.388447   99.921303
H   44.524227   47.426060   91.558327
H   69.872002   41.648911   75.872810
H    3.468350   74.646507   97.730164
H   79.663391   92.266068   75.433441
H    0.303953   20.383709   58.936604
H   31.816578   81.384789   94.358238
H   43.739120   68.882477   14.665878
H   39.954468   47.756172    9.410019
H   18.966677   83.631409   78.772308
H   18.314178   14.303617   82.179977
H   27.629398   64.600945   50.943642
H    9.823274   43.766991   35.606503
H    2.505332   59.727245   24.040531
H   26.119068   62.657001   52.302010
H    9.064706   41.966290    4.235149
H   44.831131    1.756456   72.107712
H    8.787208   23.371540   55.167519
H   67.540474   44.519600   26.452415
H    6.092721   26.286869   21.121401
H   44.866447    3.983519   22.216179
H   92.310753   25.195108   34.098457
H   36.984459    4.598905   11.392401
H    4.284469   62.162144   12.865735
H   87.978981    5.498518   16.655224
H    0.910767   68.962326   49.034134
H   37.919804   49.594215   85.589493
H   86.343971   29.274940   65.620232
H    5.131830   63.201271   99.452591
H   48.084965   77.978004   52.365974
H   46.658245   27.842064   55.630829
H    3.430290   74.036346   29.248680
H   64.259018   92.747574   10.178124
H   79.742538    5.689772   35.945244
H   43.232460   75.629929   51.985043
H   96.299377   19.289600   29.122587
H   59.668182   29.629747   88.589554
H   26.713749   99.722633    4.004103
H   20.382135   45.189014   92.762230
H   67.063988   76.836617   68.494972
H   15.069658   40.725262    4.634529
