100
TIME:    7.150, STEP:  7150
H   33.796463   66.331581   92.599991
H    3.011609   92.311317   28.935226
H    2.672634   88.303963   39.411427
H   82.676712   38.071198   48.247562
H   31.128778   45.861370   71.839539
H   17.140041   93.461967   86.834732
H   78.237900   44.140453   49.592464
H   57.910393    7.168419   51.705223
H   77.867226   98.849930   50.020496
H   79.467690   19.048403   87.669167
H   35.179443   53.938282   51.024857
H   82.945541   82.083282   83.984535
H   87.817879   29.204777   14.559521
H    1.056435   83.037575    1.357250
H   67.449898   31.359581    7.060081
H   14.037327   86.363770   39.528809
H   49.146675   54.886669   24.281061
H   53.967075   46.919952   51.669258
H   56.626202   78.305222   40.051105
H   99.886337   53.972393    3.137864
H   39.985580   44.412651   63.176739
H   47.857803   53.575714   10.389694
H   90.279396   36.471733   27.781160
H   54.720482   22.363008   76.053085
H   73.859444   19.128937   89.344276
H   13.894436   15.319458   18.035715
H   45.526691   45.260551   41.836010
H   29.245800   90.177544    3.112278
H   66.640709   97.796242   19.187651
H   75.156082   13.877514   51.792870
H   97.451942   63.208961   43.693764
H   17.212460   54.962215   37.352730
H   73.994148   45.353996   41.925423
H   80.206062   18.467758   70.533264
H    3.011860   18.314674   60.064735
H   94.175255   45.447723   96.947212
H   65.576126   42.687622   71.857391
H   68.467995   28.103786   26.997169
H   43.269260   25.629526   51.424026
H   89.743355   42.824413    0.581188
H   46.599411    1.518838   10.795799
H   97.650780   69.641876   44.979794
H   72.820160    6.378643   17.926411
H   22.792385   32.655052   79.824333
H   36.446388   49.788319   67.954903
H   85.831383   99.292160   12.208906
H   97.594040   13.679204   94.096977
H   56.624020   69.012665   10.979139
H   74.030159   40.286648   59.259544
H   75.855225   39.561008   83.604378
H   43.010639   79.357010   28.797699
H   52.618786    0.271330    4.683748
H   57.186283   63.466858   87.608009
H   11.116447   90.543533   47.325577
H   71.501205   85.196831   61.164753
H    2.501076    5.012617   49.223923
H   49.529972   83.236061   36.012032
H   93.652267    1.657780   29.388636
H   54.181480   40.879330   62.579384
H   87.192680   77.361328   60.247581
H   10.727797   46.062897   56.924721
H   45.150459   61.390884   71.840485
H   59.475178   19.379826   43.173492
H   34.017109   80.712158   33.017231
H   16.117767   89.785645   61.417408
H   62.111633   86.825737   68.947647
H   13.910501   95.557159   12.263927
H   86.466240   26.453909    8.013946
H   13.256132   36.032928   11.796329
H   75.241417    7.765321   86.677277
H   94.986870    8.915801   76.381660
H   84.477150   14.197852   80.139351
H   40.798233   64.642578   78.423889
H   72.807030   96.896362   78.325073
H    6.894597   38.843174   43.419437
H   94.686043   65.822166   14.825498
H   16.155300    6.949227   17.547602
H   67.900330   83.199684    9.306432
H    4.382908   32.516918   97.451653
H   48.882004   19.525166    4.942342
H   50.787880    3.252389    7.328336
H   77.826454   90.839523   88.835304
H   70.129753   26.691320   10.872540
H   42.057949   24.000252   10.375694
H    4.183943    1.646767   54.640038
H   86.733200   71.687347   38.301010
H   44.687122   83.489220   64.482948
H   71.020683   32.923428   21.443512
H    4.065119   96.072166   69.713020
H   34.182499   15.104626   79.811340
H   16.630207   59.509674   84.456711
H    7.326494   33.227249   69.759392
H   43.782200   42.055386   71.925056
H   38.286400   46.955040    8.912457
H   32.974312    9.275536   80.386078
H   84.482254   13.386468   98.141914
H   95.069298   78.003632   25.986263
H   24.476168   40.241207   35.345757
H   68.103569   67.677635   46.150372
H   83.325035   95.154404    8.957625
