100
TIME:    8.866, STEP:  8866
H   17.750797    8.967144   91.028946
H   55.618790   85.299576   37.134556
H   32.169300   11.759639   19.266914
H   82.964737   67.371208   54.188034
H   15.752176   83.406250   25.311367
H   90.530518   91.602898   56.776299
H   88.303001   60.014008   83.785912
H   23.036179   55.622730   94.146645
H   35.684669   33.863007   42.004276
H   32.598183   43.687626   54.860481
H   75.561310   22.984436   85.731285
H   17.449844   68.097389   61.837410
H   78.394211   25.340584   44.028496
H   16.090361   77.748390   31.946712
H   88.292427   78.078011   24.535103
H   45.041077   36.276268   97.085022
H   11.156081   68.386589   80.495308
H   90.657242   63.419395   92.187576
H   83.356537   50.294231   30.456974
H   53.648182   17.534643   19.971064
H   38.155708   73.579498   16.606184
H   12.372399   55.853729   64.256485
H   67.368324   22.520067   78.683365
H   95.278442   42.891327   48.608326
H   12.485850   83.042252    2.016397
H    5.802563   64.733810   56.552677
H   97.553551   73.929153   75.883835
H   84.454224   70.274612   59.837502
H    3.953279   53.484737   38.070763
H   40.954247   71.405869   88.210480
H   64.990730   17.087391    7.929375
H   25.561817    7.555367   78.494057
H   94.865494   19.803532   96.516251
H   52.711960   61.206696   98.241768
H   60.305489   88.389412   64.468781
H   43.343433   79.855316   91.553291
H   30.164089   79.842537    7.071465
H   97.544884   96.698921   48.089462
H   70.836845   88.243126   85.131363
H   28.115679   82.178322   35.592842
H   29.322737   60.393898   51.223598
H   53.035736   76.371185   32.586292
H   87.587982   16.672474   41.872997
H   13.220890   61.463852   47.604252
H   87.595917   82.092796   14.798924
H   63.679840   32.016186   19.180418
H   11.007607    7.001078   10.573032
H   56.728756   86.686920   17.154972
H   24.192795   98.168922   90.805359
H   11.881277   65.680473   63.623302
H   42.892811   13.688339   46.889740
H   36.017132   41.040012   92.038155
H   92.772957   73.416809   87.949295
H   71.372681   62.552071   23.047962
H   34.871223   35.578583   75.751831
H    4.638351    3.207552   90.807220
H   58.316528   33.721962   99.217720
H   65.875183   39.603218   85.186668
H   89.520409   13.388612   30.842436
H   73.953468    9.257657   11.440453
H   18.974592   66.259399   23.133251
H   84.246239   45.418594   94.195946
H   75.974152    2.282689   25.502228
H   51.852901   90.059875   86.427322
H   84.230240   52.731922   21.220785
H   56.696480    1.518551   70.411476
H   76.232559   54.881039   95.111923
H   67.930466   24.593754   90.048676
H   98.781006   12.732109    4.171732
H   10.088851   93.961319   83.038971
H   40.492146   92.156715   55.800972
H   43.173500   57.214256    5.920664
H   28.911972   79.761528   34.425701
H   35.033443   88.290688   76.366188
H   89.555756   41.369938   73.527756
H   35.255516   75.801140   99.360672
H   72.004715   58.426510   47.983490
H   48.515354   71.000084    4.084527
H   86.670387   27.476482   16.600870
H   64.728355   26.046633   57.107384
H   84.382057   21.005198    9.891948
H    6.594173    1.969782   45.274147
H   78.668846   55.389072   74.296593
H   60.114647   70.842018   53.644474
H   20.630539   94.299545   88.294464
H   47.242046   34.716324   57.465179
H   59.294941   58.721733   46.308327
H   98.618706   95.608192    3.651255
H   39.680424    0.528108   55.678352
H   82.465561   44.505920   41.154625
H   86.855919   52.167675   20.695824
H   34.293118   62.287292    2.462394
H   53.781162   93.538872    4.625972
H    4.130278   51.062855   24.618685
H    3.301674   55.568172   19.817339
H   26.216873   45.622864    9.508556
H   58.860863   76.480370   27.296951
H   21.163881   25.150455    0.894686
H   86.357353   75.087730    2.416158
H   89.913040   51.116611   43.650532
