100
TIME:    7.730, STEP:  7730
H   94.574211   13.143220   92.068985
H   86.993301   23.740932   65.507889
H   12.642565   30.030605   32.601276
H   82.774063   14.174282   16.454670
H   25.931559   92.350929   56.112915
H    8.144883   92.833611   44.274063
H   47.840168   83.304382   94.949219
H   12.323540   57.344234   98.450218
H   63.609718   43.085464   13.510540
H   63.626015   27.376345   10.379372
H   81.229263   77.275986   95.156982
H   60.810806   11.155439   42.698830
H   50.833321   94.099625   56.920002
H   72.337914   81.249855   45.497097
H   74.494576   79.551132   79.165558
H   90.716125   35.635010   91.383087
H    2.506349   93.250793   77.080750
H   66.369644   18.696991   31.566212
H   65.658539    2.634564   70.607025
H   84.257065   41.657482   42.626930
H    5.567551   86.671265   47.436840
H    3.462967   54.345673   60.997375
H   82.535561   31.754747   11.185336
H    0.829076   29.301485   32.976471
H   53.114815   73.133133   93.627724
H   11.159756   98.223068   63.456078
H   95.512161   21.149458   53.345562
H   80.306450   17.249960   22.284544
H   79.252098   50.417896   91.771446
H   97.396378   99.521591   97.901878
H   20.279047   15.220015   97.806084
H   53.834164   38.939114   83.659264
H   14.847399    2.919228   94.176399
H    4.712203   65.314339   46.098145
H   88.577217   74.400566   95.350571
H   44.593128   90.875275   95.124092
H   21.206917   21.446287   17.558928
H   44.496681   17.488094   67.924873
H   18.785465   12.993799   95.218254
H   35.114044   88.526550   46.215195
H    6.961207   21.418432   24.459929
H   48.771690   71.916351   74.589378
H   77.811615    9.857838   59.818348
H   85.757065   42.390160   36.533909
H   86.135384   26.906391   17.587032
H   78.344200   10.353034   14.565245
H    2.126583   45.222237   99.663689
H   56.659420   74.986481   46.866131
H   90.986946   92.251961   36.120964
H   88.032959   48.388981   43.050941
H   42.970814   23.362101   34.911957
H   80.806351   46.452427   66.610443
H   69.216072   66.829895   53.924538
H   97.685669   81.082779   72.920059
H   25.321075   36.025032   66.096802
H    3.223465    4.402514   29.479355
H   86.300385   66.500526   91.174690
H   50.463791   46.884468   14.447574
H   99.922523   65.389427   18.053848
H   48.917755   21.941364   43.750999
H   47.315228   19.091164   11.705041
H   24.565132   55.992325   45.596840
H   98.849770   79.801544    3.401154
H   73.845879   83.871643   17.268482
H   39.139771   43.462269   15.430186
H   26.481483   57.992119    3.241873
H   67.376099   15.609110   40.267193
H   46.401848   59.624443   35.741302
H   42.164871   94.357841   75.421326
H   87.017036   36.901958   85.448395
H   76.569817   69.452972   69.425484
H   36.720814   94.933006   22.652426
H    2.980133   35.955082   63.555462
H   60.037716   60.186619   43.862793
H   34.832367   39.697208   87.395569
H    8.397122    2.992796   75.797737
H   68.831749   56.750282   27.833628
H   95.149780   45.276211   41.339130
H   32.194733   30.813274    3.923124
H   20.438690   87.929375   54.974770
H   62.142555    9.252755   41.994446
H   21.349846   94.600815   40.312382
H    6.814085   36.391026   66.110153
H   81.960609   73.631958   57.400295
H   75.943283   65.361534   98.416313
H   73.387253   92.989532   78.577805
H   83.424004   41.318504   92.139503
H   80.348686   86.511902   15.429871
H   16.103283   63.778160   64.969368
H   82.903137   91.241959    0.547045
H   40.366169   90.829536   96.705246
H   50.240620   76.849380   80.813164
H   80.961456   59.459103   16.777346
H   94.340889   82.143028   48.020779
H   22.945152   57.324181   93.714325
H   32.387924   90.483215   68.184334
H   49.031090   11.288474   92.629051
H   23.356630   68.938408   23.701876
H   40.473564   70.182213   97.568001
H   19.351870   80.268539   53.085499
