100
TIME:    4.924, STEP:  4924
H   84.332680   70.465462   94.637955
H   64.486336   71.689240   88.579712
H   64.393921   28.155842   65.547310
H   82.303085   29.782318   70.263069
H   51.067230   67.437820   32.193802
H   51.666546   95.873558   66.387260
H   94.903908   93.829086   75.516220
H   32.869606   14.591044   56.089375
H   32.586617   12.870955   90.138512
H   40.279594   87.084709    0.506371
H   42.236542   64.370377   65.443954
H   67.907433   70.505363   42.432961
H   29.856400   63.826302   35.748535
H   11.274022   89.898720   31.958757
H   40.394722   30.195574   14.079582
H    3.539911   81.057938   24.306225
H   28.148445    7.655921   21.639494
H    6.364424   55.231564   28.834284
H   21.961372   84.921051   22.777941
H   59.853462    1.249316   51.581429
H   72.079582   66.018463   23.598801
H   34.449020   50.620667   99.954224
H   20.001534   54.575645   91.468094
H   61.548336   95.733612   41.374092
H   53.473297   95.661057   72.904701
H   24.099951   81.091614   27.387739
H   37.476738   37.792141   97.665199
H   17.069275   86.275391   29.533289
H   18.239067   95.836082   24.411663
H   89.801804   68.970634   74.832588
H    9.844813   63.599140   19.807732
H   76.661629   16.468536   43.424690
H   17.196896    8.219374   41.389763
H   86.151855   22.467407   64.310814
H   58.374161   86.703354   24.565704
H    0.672947   71.097404    3.946361
H   52.074188   24.208645   96.457382
H   60.472126   68.844063   69.913521
H   37.229290   74.131950   67.140106
H   99.408043   51.215378   25.444048
H   98.731735   25.138105   58.353008
H   89.079399   32.849167   34.132679
H   53.654133   93.027710   57.138641
H   64.928177   95.291992   62.177925
H   29.535509   37.615273   77.470360
H   14.561153   56.834583    3.164434
H   80.203415   92.621178   72.732323
H   56.502384   46.085571   73.247154
H    8.965546   24.644222   48.054596
H   29.148739    5.677778   39.272820
H   43.168949   94.262711    5.333710
H   44.429146    6.828595   50.811394
H   11.009877   50.559753   16.890318
H   62.659950   26.863960   49.098473
H   48.739014   90.118904   42.228672
H   99.727249    7.354153   25.002228
H    8.412919   47.466881   24.300941
H   59.404190   11.876459   86.723740
H   78.621758   46.820465   33.464592
H   34.085491    6.262280   23.560310
H   70.310303   49.582348   30.482140
H   24.153090   82.110184   72.560120
H    8.350263   71.278122   95.816986
H   81.162270   68.586273   93.451569
H   27.763735   67.573395   54.119892
H   98.857048   97.486565   37.328636
H   92.506378   18.598598    4.792360
H   40.231499   99.145401    1.598274
H    2.312320   95.979103   51.408867
H   30.146883   95.804688   91.364594
H   65.673332   60.371124    3.079800
H   67.959869   88.106842   17.133602
H   85.937012   74.744240   35.497368
H   21.812588   37.778965   10.586441
H   99.578011   35.659756   74.670502
H   42.065529   23.154535   64.605392
H   14.021879   99.766304   78.131996
H   63.318798   28.751728   86.373787
H   97.637794   39.055386   72.622459
H   58.042938   40.782139   96.714325
H    7.227037   80.222702   74.284981
H   10.778438   76.385025   75.035545
H   29.328638   89.466003   98.880035
H   88.913177   33.516769   13.686177
H   12.570983   40.886223   70.425850
H   37.966282   89.921059   83.720627
H   96.017540   45.338013   58.338867
H   35.214249   11.067476   44.535896
H   57.870712   20.011801   87.918831
H   30.990587    6.687447    0.239716
H   25.533073   39.313519   37.447674
H   42.625034   65.811142   27.350454
H    1.091550   75.266487   99.785019
H   23.150848   11.909245   58.817486
H   71.457863    8.667030   29.233646
H    0.623770    1.288892   13.118111
H   71.758446   50.258862   54.005295
H   24.939703   58.162598   77.240181
H   74.145142   58.075726   32.600494
H   45.058903   52.274250   23.395670
