100
TIME:    4.301, STEP:  4301
H   26.462868   27.597626   95.208328
H   81.692604   37.928963   49.298210
H   53.684982   83.335457   72.857597
H   82.198517   55.449333    4.409848
H   56.647385   17.501619   49.086365
H   61.329624   96.548500    4.688124
H   27.555344   51.762653   26.796808
H   81.836174   60.692066   13.289825
H   47.901146   72.769745   29.353956
H   57.305244   78.139351   76.113312
H    0.186493   39.302464   25.455730
H   91.682503   39.277412   86.779503
H   69.611435    1.499563   97.653076
H   42.120308   91.818977   84.548035
H   32.818260   85.844940   44.027599
H   28.591091   35.547966   76.020447
H   78.246254   66.447113   64.925346
H   93.045494   85.542915   50.432743
H   12.257893   58.787491   89.956131
H   76.640282   14.479597    9.164652
H    9.049271   28.039173   40.506805
H   74.721405   49.793625   53.008392
H   28.319481   59.642464    9.292890
H   19.432030   88.265411   87.643219
H   75.755890   45.069252   68.303688
H   26.939936   99.505173   85.971825
H   91.198769   63.691853   85.307106
H   69.635132   57.195847    8.938458
H    4.691703   39.312069   53.861336
H   65.912659   84.389732   25.305473
H   85.326866    7.734948   69.097511
H   37.324871   33.679558    1.098956
H   73.314796   53.800484   85.264999
H   59.829117   79.561798   90.557503
H   73.859802   33.797600   86.629425
H   46.515995   22.301945    5.906418
H   92.320999   47.024399   47.367237
H   86.223839   80.242027   25.951344
H   63.528263   87.706841   27.513124
H   58.086548    9.537694   76.428711
H   41.308441    3.763242   43.675396
H   45.071762    4.888278    4.866381
H   48.287868   89.291763   12.139977
H    4.711497   84.850464    1.264114
H   83.575478   62.193619   24.159094
H   22.598881   44.951801    0.631846
H   75.336227   58.740990   66.752907
H   56.469112   39.668869   34.699409
H   90.753708   76.240387   72.906921
H   16.082432   96.197227   82.846657
H   43.216480   54.409843   98.765869
H   14.153219   64.639633   91.708710
H   98.087608   46.947388   53.074772
H   77.089958   37.030869   21.607368
H   98.342499   35.517620   36.928951
H   98.947739    8.009497   46.210617
H   68.915314   65.443153   65.048332
H    5.794444   70.711220    2.770508
H   29.487417   20.496689   81.293449
H   75.196457   58.378300   41.279915
H   31.011507   78.554955   79.055672
H   46.263725   87.908981    0.746185
H   66.056572   13.790357   38.537987
H   38.381409   65.192551   10.366055
H    3.035546   17.329899   96.102089
H   37.127785   28.457253    0.492477
H   42.491562   97.060211   74.714340
H   83.266182   63.516068   71.815269
H   71.264694   40.743896   90.480988
H   17.524992   64.472168   92.676453
H   85.455788    2.759466   10.553715
H   19.330315    8.783170   71.521812
H   26.558580    5.562565   51.472580
H   35.528484   77.204445   47.602898
H   69.538338   34.770924   27.443338
H   27.335634   83.226891    6.527355
H   57.458633   53.765011   67.114281
H   34.049129   69.489830   51.969093
H   67.759727   40.885334   65.673409
H   88.595947   74.713112   50.386192
H   95.037613   73.777481   37.049099
H   64.035484   72.316360   27.130880
H   89.920509   79.049774   39.549053
H   46.051598   80.204781   70.586288
H   42.906738   79.855064   30.818604
H   52.306423   67.039574   40.457794
H   54.408791   90.635178   28.631910
H   25.186796   60.945763   51.014389
H   44.942245   54.699196   93.014168
H   86.072464   32.320984   77.966660
H    0.037201    5.673919   24.291056
H   96.526871   18.958138   15.480345
H   61.155937   56.569633   51.607464
H   62.936756   74.121155   16.813368
H   82.228416   64.473289   14.919557
H   49.166565   25.889210   45.296791
H   21.209198   14.505998   89.834259
H   22.653456   52.858124   87.212212
H    3.823502   55.390217   84.783028
H    6.363539   68.260231   83.411346
