100
TIME:    6.351, STEP:  6351
H   87.830399   39.603050   93.331497
H   25.075825   49.016224   78.556984
H   88.933548   30.819817   48.792995
H   82.542603   70.988983   92.042603
H   38.285721   81.818085   93.504318
H   29.532978   94.327583    7.706726
H   20.114738   90.187218   87.109550
H   20.710220   38.043888   25.065891
H   97.508171   75.670593    0.313286
H    1.291134    7.574853   56.385075
H    9.500473   21.788580   27.989365
H   13.439819   42.033314   40.857521
H   38.796341   77.532753   93.954277
H   40.616905   85.500313   40.554401
H   57.745247    2.730201   45.482471
H   46.164352   56.247353    5.852248
H   13.397559    2.041043   51.544930
H   36.880306   85.799515   79.366249
H   44.184498   44.786545   97.958603
H   21.410950   70.939735   48.738213
H   87.399384   23.955059   84.865669
H   71.256897   52.515030   78.431976
H    0.947291   42.969948   50.641296
H   28.958160   12.804659   35.392750
H    2.436809   82.493896   83.443459
H   17.594881   38.908333   93.197929
H   14.424690   78.474380   25.980612
H   96.663284   52.882912   76.704361
H   49.267433   25.304249   56.956726
H   44.518162   33.652733   88.275192
H   66.009361   91.562202    6.908041
H   66.763275   77.039017   11.320137
H   17.712685    3.813389   69.945190
H   46.447044   91.691544    4.194427
H   22.897446   78.810249   11.450187
H   24.719049   82.866112   99.458717
H   88.942543   71.947876    8.899257
H    1.495307   42.727818   70.613029
H   76.995453   43.038261   28.852900
H   64.999252   17.623707   37.717831
H    1.206307   74.099846   91.972511
H   64.986282   66.508591    4.190212
H   65.944000    1.585577   60.212425
H   73.810028   19.244101    1.703364
H    5.753929   81.313492   99.582016
H   96.145622   84.052444    8.962847
H   91.351852   70.226883   86.428352
H   56.578594   60.783218   61.541813
H   50.674202    6.460851   91.129745
H   59.081135   27.398561   39.469971
H   43.065502   56.495560   20.376232
H   13.780720   74.414612   57.132576
H   40.611568   58.833984   34.012287
H   29.617462    3.577807   12.068694
H   35.119316   15.175946   54.367840
H    1.505922    5.853087   76.423767
H   98.878639    6.291053   60.020409
H   53.146881   77.113823   49.968735
H   91.167068    7.114617   23.916512
H   39.917946   15.946599   82.973045
H   60.326679   83.220474   19.222485
H   73.508522   68.827866    7.990237
H    5.229352   73.902138   97.963318
H   79.152023   76.359695   54.712490
H   84.405228   53.601070   87.009712
H   11.195042   26.545921   21.704527
H   78.015701   67.930603   73.688309
H   41.658836   80.757484   69.817123
H   73.436165   93.443985   61.910480
H   59.052605   67.580498   88.359741
H   20.359631   63.279114   85.964394
H   50.297611   40.747757   21.611916
H   92.893677    4.161217   98.906067
H   90.399757   47.463932   25.798304
H   68.376701   37.695652   82.846695
H   75.800987   14.611877   68.586578
H   43.589443   76.105980    3.377466
H   30.361858   35.443787   65.183342
H   66.064735   34.863834   88.539467
H   88.066360   63.050667   73.776878
H   35.151749   94.985672   59.573322
H   17.871290   85.658020   55.679096
H   19.589500   13.329442   34.780678
H   87.088142   55.628075   83.351280
H   43.088600   51.627357   32.094070
H    5.119882   42.337250   82.815842
H   91.323647   41.583351   26.383657
H   58.170555   96.860046   29.727821
H   87.483749   40.558266   76.247810
H    4.824498   47.979740   51.248741
H   83.931725   16.367985   67.583298
H   48.208584   73.135315   54.535660
H   92.564926   18.080265   10.137156
H   61.065945   98.481026   55.037155
H   46.787590   80.845901   62.025272
H   18.488190   44.937103   39.411652
H   58.489738   32.150375   71.937454
H   26.018427    0.707090   51.384033
H    6.166159   64.227364   13.073814
H   33.696049   15.658348   85.928505
