200
TIME:    0.798, STEP:   798
H   26.617239   60.623112   24.881031
H   32.937561   41.024323   12.550134
H    6.442493   93.561722   72.832695
H   36.651627   83.495796   29.908134
H    9.285714   97.871674   45.635803
H   71.465881   37.669998   49.033417
H   11.443648   54.908211   60.451885
H   15.393094   12.981025    5.265949
H   10.088995   79.140823   34.107014
H   91.218552   67.082314   74.062721
H   31.642809    6.514025   10.594994
H   33.085205   56.916664   39.329926
H   24.869595    5.527267   38.421989
H   78.029961   55.561169   69.154289
H   92.681778   76.240105   41.605644
H   13.035845    2.975352   42.285767
H   10.456491   33.852322   88.339821
H   23.312336    9.992259   33.586185
H   83.591080    9.500599   50.698105
H   91.831505   72.041710   15.839873
H   64.781654    4.612993    0.276283
H   77.606514   70.142952   49.071564
H   78.295692   58.484344   35.747307
H   20.427288   93.146538   89.836372
H   27.499969   35.145889   25.499416
H   18.199186   87.100281   88.527122
H    9.701810   69.993202   71.517319
H    7.316586   93.148125    2.199526
H   34.570477   39.569038   35.070961
H   67.834015   35.712711   79.323746
H   12.632978   74.761696   16.877029
H   21.779011   76.584457    7.341506
H   13.640739   20.992224   79.994934
H   77.958809   64.186699   48.043549
H   21.210207   66.744003   29.974150
H   14.834011   37.199303   85.875053
H    2.279972   62.385376   90.144020
H    5.314185   59.189358   90.079086
H   32.418564   26.419735   56.834991
H   84.731445   37.393856   41.899506
H   80.670341   79.157135   20.045563
H   41.113297   31.405912   23.284962
H   66.654861   74.963493   71.048088
H   36.038162   90.335243   38.704678
H   47.842705   93.319702   64.500481
H   33.207382   99.316643   48.756519
H   90.489441   98.874237    8.412910
H   76.531090   65.542091   27.587723
H    8.660224    7.577051   61.568638
H   42.148991   20.319639   82.105911
H   64.934280   63.433418    5.754916
H   99.807823   45.302227   75.538521
H   67.227257   78.464897   15.220001
H   14.101734   93.959122   89.966393
H   53.579941   63.975189   72.727074
H   98.152763   58.602715   96.920135
H    3.838038   18.857033   43.668964
H   73.504990   71.551086   95.231590
H   16.406805   85.256699   20.622166
H   30.197582   92.855873   56.679031
H   48.612335    4.489676   25.933151
H   99.965508   17.746744   53.344017
H   86.820068   36.765396   66.059570
H   37.646294   65.948433   16.126114
H   80.318298   84.397644   40.747547
H   16.850557   38.239555   42.893265
H   65.331886   11.391679   97.363625
H   94.216637   92.718575   98.318993
H   36.370392   13.393817   54.917107
H   42.024906   51.355564   50.952793
H   58.220375   86.243210   88.207092
H   16.458031    9.154956   40.858845
H   95.203751   35.309917   80.810898
H   26.044443   96.699532   76.817665
H   85.939529    9.904300   41.375580
H   67.417870   99.376793   59.231178
H   93.069092   50.723213   64.252724
H    5.887822   16.130816   28.886757
H   15.774626   54.551353   22.573641
H   59.867069   87.554932   67.798859
H   67.050911   20.671282   92.849365
H   51.172611   58.554867   70.607048
H    8.822686   19.787092   73.953346
H    6.477743   80.105965   12.037852
H   19.037727    5.224485   41.968819
H   40.387428   66.250793   16.167046
H   60.864151    3.946857    3.050601
H   70.691139   97.776367   32.488708
H   82.765274   73.415344   79.180298
H   20.649277   11.058922   48.726620
H   17.852268   39.709820   78.272537
H   80.168602   93.431244   10.543278
H   73.767944   10.568890   79.837692
H   35.006161   74.386482   84.426338
H   39.263588   49.378181   91.179848
H   46.163979   40.185028    2.825799
H   86.874901   94.978508   22.360847
H   92.302345   37.233631   54.024162
H   24.374016   64.188324   54.858719
H   76.906593    6.994188   27.386637
H   34.762234   95.854492   95.215248
H   11.321044   85.098602   62.786644
H   34.746216   16.777159   38.300114
H   48.688164   68.969727   12.321715
H   24.599051   20.139702   43.178516
H    9.514273   99.453369   17.765867
H   91.344360   36.900715   53.514927
H   61.462994   55.698746   97.164864
H   86.977303   33.046112   26.114735
H   22.291681   20.280352    8.268259
H   54.536087   91.217827    1.188445
H    8.399038   77.377136   96.867165
H   47.402519   86.749863   81.798088
H   61.333977    7.367572   60.565147
H   45.229256    5.204237    7.207383
H   91.266411   89.474464    4.107337
H    9.632730   16.299929   90.685104
H   37.940075   54.461819   22.824638
H   40.053223   78.663300   55.962124
H   85.508293   57.811703   70.158981
H   46.378426   25.467457   69.235146
H   94.213089   14.261417   64.601730
H   45.689156   98.288406   40.582767
H   95.856339   47.239380   93.429375
H   60.219627   95.136665   74.358162
H   68.165428   77.619034   14.757414
H   81.516670   51.795334   49.504807
H   63.223274   91.946373   39.715298
H   99.334587   32.285374   72.174004
H   94.791199   21.504559   76.007942
H   71.133812   65.261993   24.735668
H   60.282021   91.585739   22.485996
H   90.615669    9.742529    1.526430
H   73.559525   27.309467   56.574551
H   31.991657   91.280579   30.775757
H   47.496185    0.910709   75.460945
H   69.816528   87.986427   83.116905
H   95.977898   46.798351   74.381706
H   60.898407   52.137085   71.418114
H   43.750206   82.328606   79.952759
H   78.242645   46.659279   32.934906
H   31.550358   57.965134   59.254772
H   37.067780   67.030861   80.563156
H   32.144325    6.328997   87.371071
H   66.530563   51.261017   67.314911
H   66.385597   71.588943    3.121533
H   57.928581   94.334160   43.286510
H   27.415916   52.647804   65.623558
H   80.102509   41.494812   92.397324
H   27.249439   94.766853   69.115356
H   56.552757   70.786484   47.131695
H   57.276482   91.669411   30.665871
H    2.097887   10.974041   83.876862
H   24.660252   13.950928   62.163158
H   35.739346   68.616013   70.847725
H   80.066872   44.912495   71.229019
H   65.152145   77.618256   87.362961
H   53.979362   27.707001   22.796936
H   86.843025   99.631729   81.910851
H   57.423717   34.176300   99.654800
H   59.437096   61.739784   68.579536
H   17.404692   20.164597   30.709923
H   89.238487   10.241211   37.000034
H   31.757021   36.572018   47.325890
H   53.611397   41.022270   15.307289
H   21.527523   46.684635   59.251537
H   65.291328   88.541695   58.137081
H   24.119663   56.320389   71.086746
H    1.655379   26.355577   35.539330
H   51.937408    6.248809   84.119720
H   68.704956   12.269732   35.929245
H   26.886045   44.721069   59.171638
H   48.454308   53.476742   74.723465
H   64.354813   61.191772   87.185425
H   45.502991   90.838943   72.994286
H   18.133476   50.677200   23.828239
H   29.685421   70.353043   10.249290
H    6.675479    9.733009   72.015274
H   61.331028    8.407557   62.609005
H   59.757217   60.440727   94.256569
H   71.230331    5.185812   28.745743
H   30.482645   30.787197   89.986877
H   39.942265   89.578201   17.122070
H   63.632820   26.252857   97.718513
H   92.738922   64.132187   76.097946
H   10.941874   40.932236   86.746925
H   50.781860   94.966820   11.629107
H   63.613449   90.860542   45.051849
H   90.458473   63.661739   72.920700
H   59.760612   55.237926   72.752945
H   74.475906   12.562988   75.316719
H   43.078552    0.093357   17.516989
H   16.494888   30.799046   70.589561
H   25.355299   85.800552   44.558681
H   65.745712   29.331661   19.991009
H   76.690445   11.752668   21.921501
H   13.170367    0.774726   22.300642
H   12.692635   86.316170   31.229965
H    4.472253   13.173223   53.061348
H    2.187833   16.087738   89.996429
