100
TIME:    4.721, STEP:  4721
H   98.060951   89.081642   94.823807
H   70.092873   60.689430   75.780701
H   60.904373   13.551742   67.929314
H   82.269012   38.145866   81.389412
H   52.885483   51.166473   37.698120
H   54.815189   96.093483   46.282902
H    5.543427   80.122498   59.641354
H   48.825005   97.029053   74.727898
H   37.576744   32.388580    2.916105
H   45.827278   84.169930   92.558014
H   61.119110   56.202183   84.998688
H   75.654366   60.329964   56.882957
H   42.810287   76.101830   55.919678
H   21.324928   90.524422   16.509806
H   37.925987   48.328461   23.837666
H   11.702587   98.813004   41.157166
H   44.472450   94.228790    3.159604
H    2.023468   65.108223   35.871532
H   18.799564   76.405930   12.083704
H   65.322533    5.560301   37.760231
H   84.125893   86.226776   29.108540
H   14.987213   50.351181   17.241486
H   22.711876   56.226631   97.275970
H   80.409424   93.302643   56.451340
H   60.733917   11.760078   71.405495
H   25.025339   87.091537   46.476482
H   54.982452   46.231373   93.638405
H   34.197765   76.800034   22.822481
H   13.824889   77.418144   34.007210
H   82.017700   73.994835   58.694435
H    1.855137   45.396481   35.868446
H   63.844036   22.076622   62.217430
H    2.897549   23.071276   23.101919
H   77.574783   41.071198   72.863106
H   63.420044    2.048590   12.204994
H   83.026306   55.197758    4.585026
H   32.604637   31.643501   80.461716
H   68.862694   72.558006   55.588337
H   45.798618   78.555229   86.812546
H   18.528353   70.219795    9.472387
H   12.604996   18.173300   53.570415
H    7.324110   23.738474   24.596918
H   51.905575   91.810379   42.476463
H   77.891357   91.887207   42.329811
H   47.143551   45.623947   60.099384
H   17.180332   52.962666    2.339231
H   78.617477   81.581566   70.783974
H   56.491543   43.994736   60.686653
H    3.032057   41.456089   56.153099
H   24.891178    2.587988   53.470367
H   43.184437   13.861336    3.193701
H   34.563499   25.665487   64.138519
H    6.799112   49.382690   28.680307
H   67.361565   30.176773   40.140404
H   64.901947   72.326668   40.501797
H   99.473251    7.567689   31.912827
H   95.543427   53.324318    4.993790
H   74.520157   31.047789   91.952377
H   62.610741   38.243393   49.049835
H   47.480778   90.659439   29.334114
H   57.505096   59.022083   46.308990
H   31.357180   83.999680   81.744308
H   94.568840   85.130295    9.737328
H   67.223366   67.480453   98.962082
H   19.706274   83.785889   35.215641
H   11.327045    7.578045   25.325689
H    8.793558   11.580604   94.991440
H   54.254036   87.535843   91.893700
H   92.195480   10.565369   64.141266
H   26.034132   85.595215   91.792053
H   72.119301   74.183029    5.515079
H   84.698944   94.843979    2.270847
H   99.172775   84.786446   40.702774
H   26.280781   50.625988   22.647465
H   89.789803   35.370136   59.281948
H   37.265900   10.144117   78.265518
H   95.590897   17.361084   74.541954
H   53.781490   42.026020   75.163811
H   87.902245   39.651661   70.358162
H   67.998413   51.838787   14.202761
H    3.254644   78.122574   62.151943
H   95.547020   75.059280   92.010033
H   16.487810   86.071106   79.548325
H   74.946396   16.145090   32.226517
H   22.455854   53.584564   90.104485
H   42.638912   82.465294   69.623749
H   82.459633   60.097763   48.659073
H   31.946363   27.319582   46.646866
H   53.658066   31.313929   89.579109
H   48.939205   15.039948   92.982224
H   17.225487   28.352634   33.160686
H   27.605089   50.543396   23.483183
H   88.078850   69.173637   84.086716
H    3.529723   99.595703   45.131031
H   74.967369   26.851105   24.569534
H   83.856812    9.304794   23.603371
H   87.871819   38.609035   65.679901
H   24.194746   56.434174   80.489494
H   83.815643   57.200672   49.604408
H   32.450390   57.482754   42.951611
