100
TIME:    2.840, STEP:  2840
H   25.264450   61.578850   96.545914
H   22.270546   58.726448   57.146320
H   28.571814   78.225204   90.000984
H   81.953293   15.642122   84.493347
H   69.733429    0.396041   88.701187
H   83.980721   98.131310   60.001392
H    4.126747   53.108994   12.544639
H   96.667892   34.297924   47.435123
H   83.815315   13.239065   21.318768
H   97.232170   57.161552   18.900454
H   36.085144   80.516190   66.185394
H   47.446976   66.045212   90.775139
H   62.608559   89.883301   42.855927
H   14.460837   96.322182   73.366005
H   15.045349   16.347136   14.255574
H   87.333710   63.332306   97.296242
H   95.731148   69.813507   31.924753
H   61.834396   56.591469    1.085754
H   89.500114   97.493271   12.985476
H   16.005341   45.503582    9.692987
H   95.747101   73.486908   80.159607
H   34.653915   47.854126   77.426056
H   47.825935   71.524681   51.095016
H   55.174744   70.743042   96.149940
H   28.008720   60.934135   57.515549
H   33.636829   42.986019   22.978537
H   17.182068   24.421118   56.323139
H   92.911217   89.001320   60.649303
H   72.923721    6.759246   22.923609
H    9.892018   20.550339    9.160702
H   27.826376   76.723358   84.687187
H   45.076454   74.043968   36.351021
H   70.404266   60.694283   53.646584
H   98.097374   13.453621   52.105972
H   10.176274   44.237976   97.665703
H   19.481380    7.581177   10.877336
H   52.191467    0.527870   32.246090
H   46.607941    6.974019   22.852726
H   25.195007   19.537951   69.095169
H   95.697403   46.312256   61.480625
H   41.157513   53.629154    9.255412
H   76.378136   39.319382   36.226212
H   35.703419   80.530579    6.610240
H   98.006500   60.370995   58.413361
H   10.307016   19.840099   99.136940
H   41.447689   17.085438   94.700905
H   63.922092   79.286285   52.721596
H   56.391087   24.623766   44.301018
H   48.044312   97.241447   31.184763
H   85.445885   73.971016   85.031281
H   43.327946   95.459473   83.361343
H   43.150837    0.207963   87.620934
H   67.791298   38.476013   37.926620
H   10.927273   60.873329   57.137604
H   14.667297    7.474097   24.503916
H   97.119705    9.547247   95.946503
H   76.294746    7.599824   26.095192
H   14.584113    8.684463   40.404617
H   14.262085   58.765820   93.454765
H   71.607132   46.080433   82.834236
H   38.850471   46.498058   92.967484
H   98.117455    1.508062   66.855347
H   66.869347   13.486301   38.723312
H   38.057045   57.243393   50.036610
H   45.047222   34.017704   60.045723
H   26.879372    1.088130   14.107861
H   59.710091   46.547916    4.176875
H   84.187447   79.959534    1.971023
H   98.446159   45.722038   82.112923
H   87.923157   90.986397   95.752899
H   31.850574    2.165702   28.081657
H   39.796127   57.271057   64.554535
H   21.818464   77.827751   88.928703
H   67.692802   69.659805   34.418907
H   99.100243   32.686520   16.689205
H   92.795860   89.590080    4.834198
H   24.808207   80.394913   41.276585
H   65.408691   65.021416   71.283676
H   97.702209   45.176754   49.367157
H   60.246407   54.282543   76.252701
H   66.457870   58.662762   49.728626
H   54.413254   62.774918   49.298683
H   97.486099   54.661133    0.395959
H   45.537434   55.184052    4.027368
H   14.044660   71.241791   72.446312
H   85.928284   13.371525   39.001522
H   56.831902   96.861778   58.965485
H    1.673159   77.917206   66.208748
H   14.620575   36.045006    4.964950
H   15.244074   92.429031   25.741444
H   40.247131   26.784027   93.437332
H   88.422318    9.090853   87.638359
H   67.503967   12.730160   38.625839
H   21.724270   85.499992   18.305660
H    7.487757   95.339111   81.347404
H   28.493973   83.583138   20.759491
H   37.176163   30.662167   73.858513
H   17.291967   40.418579   10.593899
H   73.422447   49.092419    7.157468
H   15.614981    5.755706   24.153017
