100
TIME:    8.934, STEP:  8934
H   13.152343    2.731367   90.966690
H   53.740738   88.984085   41.422428
H   33.338154   16.651653   18.468742
H   82.976151   64.569695   50.460464
H   15.142847   88.856750   23.467815
H   89.476318   91.529228   63.510826
H   84.738853   64.605827   89.103600
H   17.691513   61.505390   87.903419
H   34.013100   27.324917   37.723667
H   30.740705   44.664005   57.522957
H   69.236115   25.720322   79.180931
H   14.854294   71.505898   56.997017
H   74.058090   21.224953   37.271141
H   12.723489   77.538795   37.121731
H   89.118355   72.003914   21.265114
H   42.307007   30.328758   91.440491
H    5.687840   72.884575   86.685616
H   92.111954   60.110497   89.830154
H   84.415924   53.147106   34.039280
H   51.816303   16.090567   24.600824
H   34.120491   66.810211   14.760557
H   18.891626   55.944000   58.465652
H   66.460426   21.967287   76.737869
H   88.960510   43.704803   43.557819
H   10.053851   77.649857    2.518367
H    5.481815   62.729172   50.153294
H   91.690086   71.102737   77.232712
H   78.716309   73.448624   62.085457
H    5.431922   59.654293   34.856285
H   43.561729   69.722885   93.616364
H   67.666695   23.185093    2.549440
H   29.855396    5.676732   72.198952
H   99.655045   14.828510    2.642231
H   55.585068   54.974884   95.376961
H   58.613167   83.240852   68.605682
H   49.254627   85.181305   91.339546
H   36.685982   77.352303   12.429490
H   94.734032   95.454842   52.887833
H   67.966850   86.761436   78.541580
H   21.710848   75.812660   40.943214
H   24.675596   62.726936   52.825649
H   47.305084   76.637848   36.057575
H   88.173187   17.080509   46.784466
H    8.879063   62.605728   54.252659
H   81.697174   79.410606   20.618059
H   62.802551   33.313183   19.456678
H   11.539247   10.699335   11.226070
H   56.732906   87.387299   21.362431
H   26.180313   92.536842   88.093079
H   13.308622   66.715996   58.868511
H   42.888142    7.123199   47.606720
H   39.321880   34.729862   87.574409
H   94.183052   73.811096   84.000198
H   69.797607   61.442360   26.048435
H   29.456917   41.538025   76.329773
H    4.723045    3.136023   88.492340
H   62.627228   31.759865    5.685163
H   60.811707   33.181526   83.435204
H   94.883751   16.261980   25.622023
H   69.465858   14.484555    9.506371
H   23.264280   63.096951   17.831646
H   81.832787   44.785660   91.119469
H   80.590424   97.642479   20.839264
H   56.522610   90.430298   84.581436
H   86.929031   47.300617   27.553503
H   52.519112   98.138115   74.432167
H   70.776871   57.231716   98.394882
H   63.233261   28.482929   93.299469
H    2.170076    7.846062   99.906799
H   11.469893   97.377090   82.894745
H   38.332386   87.530067   54.985420
H   37.574104   54.956444   10.904922
H   24.478317   76.397636   32.682018
H   33.536709   83.986732   72.325783
H   92.831451   41.470066   78.683578
H   36.863274   80.159050   94.784866
H   78.180496   52.540737   49.189697
H   51.709599   66.553978    7.840176
H   89.931557   27.276745   17.359873
H   61.393517   22.342150   51.249107
H   85.713295   21.708689   13.956347
H   11.696707    2.411215   39.585518
H   82.969688   56.526279   80.772240
H   64.792747   76.660866   47.433933
H   17.319565   90.045395   81.702606
H   45.676830   37.214340   62.187286
H   63.836506   53.777580   49.550819
H   99.712334   90.167030    2.946240
H   41.091557   96.741936   55.122200
H   76.453720   41.708038   43.585197
H   89.638756   55.839214   22.131859
H   39.324429   67.401611    3.757867
H   58.140110   95.578789    9.884517
H   10.702124   55.188343   29.203569
H    2.125881   49.476955   21.379702
H   31.833389   42.937561    5.996159
H   53.463280   80.382774   23.385986
H   21.032625   28.515125   99.529381
H   83.117973   75.381371   96.720573
H   94.137100   49.371891   37.099659
