100
TIME:    2.076, STEP:  2076
H   76.931061   31.641464   97.245377
H   43.522560   17.301794    8.953543
H   15.439398   23.259541   98.965767
H   81.825058   47.119469   26.370148
H   76.576508   39.158070    9.416281
H   95.824959   98.959007   84.339134
H   44.166836    1.518095   52.798759
H   56.716789   68.201416   17.582100
H    2.595927   86.694382   69.411369
H   18.108606   46.191643   88.983238
H    7.150558   49.774799   39.778652
H   76.606232   27.749620   45.156746
H   11.208507   36.106621   18.791683
H   52.290062   98.677040   15.224094
H    5.751412   84.590729   50.981865
H   18.053349   30.154671   60.715591
H   57.160156   19.286201   62.367844
H   45.507767   93.744606   27.574997
H   77.597588   65.446213   72.733154
H   36.587036   61.725292   57.676369
H   41.083847   49.545582    0.898546
H   61.408268   46.840019   42.487610
H   58.026436   77.738243   72.953232
H   26.158653   61.580082   52.893143
H   55.333977   21.528572   51.879044
H   37.139973   65.748154   94.588905
H   83.063301   56.181866   41.162281
H   57.374275   53.340374   35.392933
H   56.311478   37.442635   59.038475
H   80.596718   39.459152   48.424374
H   97.765694    8.210958   45.137196
H   96.837219   95.156090    7.078325
H   16.587952   16.592258   84.819427
H   65.817162   83.469803   84.292923
H   29.169159    1.990346   51.141373
H   53.054882   47.565228   13.503236
H   78.914032   28.509256   72.046021
H   78.185478   20.957394   68.937935
H   57.446075   36.182983   43.132118
H   67.656563   17.834833    1.369102
H   93.370140   27.416273   91.254196
H   45.042145    5.028617    0.334165
H   29.122641   75.949097   51.424385
H   46.792244   47.564995   83.714035
H   76.577354   49.981121   33.759598
H   51.304287    2.513294   91.599953
H   57.947514   37.738190   45.383064
H   56.350285   16.757723   97.029076
H   25.713957   60.514019   61.663780
H   69.428185   62.347446   38.466129
H   43.386234   69.219078   75.305862
H    6.023054   71.102539   37.776722
H   51.944031   34.046082   82.299309
H   28.617855   73.336891   23.424234
H   75.490387   40.498287   18.022047
H   96.163773   10.350172   21.954865
H   27.861292   29.645119   53.432350
H   71.473724   80.834854   60.082840
H   54.005676   26.485109   52.108315
H   22.024570   87.355957    4.563962
H   90.656021   82.027901   52.533649
H   25.230587    8.620726    1.420681
H   15.046211   65.585670   91.136398
H   85.594788   53.087418   70.779610
H   14.721335   95.037048   88.895081
H   73.813332   39.068855   68.934669
H   21.007334   20.136053   67.291580
H   36.962364   36.266418   65.447403
H   60.371506    0.618213   30.029320
H   72.441711   52.560837   97.361664
H   56.110298   54.148834   37.249088
H    2.791987   82.626587    8.616270
H   71.632477   15.619656    8.516132
H   84.503227   18.005796   79.825706
H   62.262138   31.597601   58.772930
H   74.738060   40.624893   56.240162
H   55.442978   46.613441   27.764380
H   29.514584   14.975687   29.089581
H   61.062683   47.420750   40.839622
H   97.714302   95.890289   42.071877
H   51.507809   50.758831    4.066758
H   97.087143   57.785416   13.183542
H   49.151424   41.907593   27.628513
H   92.979744   89.807594   73.810211
H   51.245758   19.028633   46.507477
H    3.509140   85.309975   85.946907
H    5.806082   52.410812   22.535124
H   89.374664   39.084869   74.159309
H   98.764351   78.584007   11.215296
H   82.792374   23.862656   98.430855
H    8.981140   85.529373   77.303055
H   31.890757   51.639668   73.077873
H   18.484085   89.836777   79.520035
H   47.881580   39.157452   66.791359
H   20.698833   63.775246   63.790886
H   65.390671   13.752625   60.220856
H   97.819595   86.818001   17.796875
H   14.487502   33.913574   22.819283
H    9.817440   45.799114   71.153152
H   68.167953   25.379032   97.736969
