100
TIME:    5.634, STEP:  5634
H   36.317543    5.355598   93.987930
H   44.877266   10.161061   33.346912
H   76.603546   79.236725   57.211750
H   82.422256    0.528520   31.343773
H   44.707825   24.347368   12.944712
H   40.654049   95.104362   36.700130
H   57.690929   41.772762   31.039217
H   77.065002   76.014023   90.898430
H   15.133461   44.607315   45.447083
H   20.877920   97.279259   28.311018
H   76.194077   92.938950   97.054375
H   40.807610    6.093978   91.895195
H   84.549728   20.891487   65.199150
H   76.118996   87.710304   85.989830
H   49.029213   66.775894   79.951752
H   74.992706   18.958939   65.369843
H   71.054329   54.615009   86.273590
H   21.547125   20.687294    4.222734
H   33.019665   14.705501   60.181431
H   40.726494   86.168983   99.921577
H   29.947166   95.334290    4.328285
H    2.517410   51.563202   39.491119
H   10.521228   48.801262   71.154831
H   95.577934    4.227267   88.643356
H   28.079430   39.355736   78.148232
H   20.863371   60.105652   60.620850
H   76.253357    8.277439   11.752832
H   57.160450   19.415764   53.004585
H   33.677147   60.252476   90.850555
H   17.026047   51.398308   31.274952
H   37.788597   27.267502   63.634789
H   21.491276   96.852356   77.696465
H   67.209709   56.271919    5.352170
H   16.151226   57.400230   34.398857
H   40.725998   33.033005   67.798218
H   62.391544   26.708000    1.713343
H   20.173252   98.205200   52.402447
H   31.128941   55.851009   20.017735
H    7.258126   58.661369   98.336220
H   32.533916   84.747185   81.306236
H   50.207413   49.497772   75.080299
H   25.411297   63.697456   67.583488
H   59.769779   97.285370    8.424279
H   19.594280    7.209449   31.598906
H   67.946999    9.604327   38.227398
H    5.399445   70.376755    6.049925
H   85.750290   31.234703   79.546745
H   56.540302   53.398346   17.177877
H   29.717575   65.840881   19.730957
H   44.039715   16.484434   89.615158
H   43.114780   25.717386   12.818471
H   78.934608   40.946377    4.199282
H   25.737888   54.676575   75.655968
H   46.219749   15.277360   80.429649
H   92.207115   52.342350   48.268482
H    0.612863    6.607302    0.832145
H   53.421921   26.980278   91.827644
H    6.536599   44.826118   68.436386
H   34.618202   76.819267   78.958427
H   87.233047   60.837223    3.366219
H   15.097443   16.565258   75.124321
H   98.956245   75.501602   40.434105
H   56.553661   22.829123   47.130157
H   29.915871   72.453918   74.178345
H   55.947304   10.865532   20.239038
H   55.240410   62.190239   79.309380
H   35.542572   43.143917   39.072403
H   91.186714   39.752293   35.540379
H   37.700298   44.963020    6.877055
H   44.529022   31.515549   89.869537
H   43.128319   12.063366   94.563667
H    9.418495   64.543457   69.117996
H   39.644440   39.625015   17.291267
H    6.184917   92.843346   68.400414
H   33.809338   36.672710   28.493858
H   58.852409   68.660576   16.833090
H   78.486076   38.228390   90.688301
H   96.675888   82.327385   25.584177
H   31.683720   36.969891   80.541924
H   23.227528    2.108367   35.547028
H   21.120493   87.567978   16.720156
H   64.057846   81.008148   15.656627
H   74.238670    1.339661   66.498215
H   37.760101   94.272385   48.837605
H   77.999901   96.474190    1.599372
H   21.623585   15.999534   33.025391
H   43.436852   93.715080   92.194305
H   46.639214   54.235943   37.161926
H   72.604599   80.480339   82.111946
H   68.218231   77.478439   25.619818
H   54.589165   77.650635   52.441570
H   95.157845   19.209986   40.876381
H   46.603668   96.566597   54.690449
H   91.772285   54.981396    6.691104
H   59.183235   45.070705   45.548801
H   59.266891   73.251251   76.445419
H   15.402113   91.004555   13.172833
H   27.402407   65.226944   65.777000
H   40.322205   61.136257   73.131142
H   89.160736   34.057316   55.000309
