100
TIME:    8.185, STEP:  8185
H   63.803947   71.417656   91.652420
H   74.426926   48.398106   94.195328
H   20.463572   62.765564   27.260372
H   82.850433   95.427544   91.514717
H   21.854429   28.821095   43.775650
H    1.088433   92.340675   89.334023
H   23.994713   14.027598   30.530827
H   76.561432   96.709038   56.675087
H   52.424950   99.338181   84.870789
H   51.198494   33.909473   28.196201
H   38.906265   95.584015   51.328415
H   43.443520   33.962185   10.312069
H   21.819572   66.557739   11.704569
H   49.808693   79.847420   80.122444
H   80.021004   38.908279   57.283081
H   72.421982   95.838829   53.614532
H   65.918007   23.345272   18.501196
H   76.096436   96.557045   15.794033
H   72.747086   21.723530   94.580338
H   71.996170   31.996645   73.605476
H   78.567223   41.375034   35.089161
H   47.084263   54.949692   22.249893
H   76.460655   28.055998   98.166931
H   58.554192   34.744598   99.184052
H   36.841011   37.049072   96.988014
H    9.014446   84.809677   20.637135
H   56.278000    2.235154   62.374607
H   41.915047   38.487827   37.324890
H   89.145515   91.699478   70.262810
H   14.842720   88.260452   34.072144
H   38.186733   56.019775   61.807930
H   82.563255   26.369267   41.537605
H   46.897701   69.628868   35.166397
H   23.937901   23.616188   26.929674
H   77.253593   39.950645   23.033789
H   84.145966   26.513720   93.693886
H   64.846062    4.781954   53.411282
H   25.691662    9.160980    0.035088
H   99.579002    3.081289   51.124855
H   92.258026   45.931313   82.013733
H   75.864929   37.029205   35.179531
H   10.426761   73.700638   97.819817
H   81.727325   12.587206   92.684883
H   56.703014   50.028297   81.020905
H   46.667305    8.955730   56.523315
H   72.470634   19.029736   16.413752
H    5.683440   69.966194    4.033273
H   56.687191   79.672836   75.018974
H    4.288262   54.567589   17.970490
H   97.586182   55.314373   11.236796
H   42.939571   79.434410   39.709396
H    2.919178    4.231202   36.742737
H   78.651268   69.468140   27.500139
H   87.146576   73.660980   92.998489
H   89.092690   75.899673   69.963913
H    3.790167    3.923898   13.990082
H   15.146115   53.371788   34.449150
H   16.583967    3.914701    2.727322
H   35.808117   84.613899   83.123978
H   18.893837   56.915462   30.809715
H   76.016556   97.931885   76.228462
H    8.416298   51.757248   25.008709
H   29.739822   48.753571   72.200439
H    5.088602   86.350204    4.914531
H   57.201332    7.121334   57.802460
H   98.531593   35.372643   30.145435
H   30.871069   31.339622   62.234051
H   14.971994   85.645866   57.492935
H   64.843231   61.664436   46.884544
H   96.257835   59.754017   84.483353
H   62.121502   38.494118   63.968483
H   99.253067   79.825584   56.002407
H   73.313721   13.448729   51.888172
H   50.022800   31.391529   16.828703
H   56.750626   40.367184   21.893713
H   19.154299   32.154160   45.182350
H   10.155286   17.367538   35.903679
H   16.524679   15.526531   66.468750
H   54.012321   29.476795    9.000877
H   98.125786   63.143761   15.776014
H   71.050102   13.959939   69.189194
H   55.491356   97.551483    2.247458
H   35.593750   44.000278    9.440526
H   13.264726   12.567179   15.844467
H   53.788971   36.899570   54.309029
H   62.917225    9.701739   10.174508
H   13.812501    8.236101   13.835716
H   87.666344   50.102798   10.712273
H   25.547157   38.444069   61.248055
H   42.675007   72.524307   16.811537
H   58.986622   15.398267    6.314277
H   83.906013   11.069828   89.484657
H   10.127758   73.109703   51.963196
H   38.314423    9.747304   78.700783
H   15.077282   16.566772    4.169755
H   69.969025   72.515381   44.683128
H   12.915752   37.398933   66.461830
H   22.478373   91.453743   14.566954
H   18.798302   72.147011   59.458836
H   47.612331   68.590836    9.252587
