100
TIME:    3.158, STEP:  3158
H    3.760007   32.416557   96.254776
H   13.424635   75.967392   77.205704
H   34.037926    1.103723   86.269569
H   82.006668    2.539713   67.063904
H   66.885132   25.885128   80.078659
H   79.050789   97.786797   91.493095
H   87.459496   74.581627   37.412651
H   71.673721   61.808010   18.236439
H   75.998268   82.664505    1.301394
H   88.541710   61.727562   31.353868
H    6.505554   93.311691   35.555111
H   35.308960   81.985001   68.139183
H   42.381767   70.643951   11.249798
H   98.715691   95.342018   97.564400
H   18.913841   87.942245   98.969276
H   74.547913   35.518951   70.899757
H   70.159554   90.848206   60.873547
H   68.628380   41.127205   90.061218
H   94.454308   10.834025   29.738024
H    7.438614   38.751614   31.343927
H   76.876526   41.828835   71.527374
H   65.140884   48.276276   50.345398
H   43.580177   68.938408   41.996964
H   25.629120   74.556946   72.533821
H   16.636154   35.714333   59.862343
H   32.178715   33.511913   93.172096
H   89.760971   11.202033   62.633549
H   66.078026    3.844453   71.160149
H   79.838242   35.610123    7.892410
H   22.084927   12.679660   34.440063
H   40.342464    5.239968   59.528038
H   65.155251   65.256462    6.912159
H   92.802460   37.427528   82.294533
H   11.533908   84.310951   38.708786
H    2.271093   20.199707   17.029091
H   47.130306   32.562038    9.784356
H   82.692055   88.882309   57.303341
H   33.465500    1.153983   45.292164
H   11.771325   12.610086   38.278244
H   65.744186   16.541632   86.499306
H   19.424788   64.539658   16.746809
H   47.798119   53.592407   51.166428
H   38.442539   82.437531   29.579609
H   77.699646   65.700470   89.506432
H   82.722176    7.294069   26.349779
H   37.345074   23.150806   95.991615
H   66.406540   96.579865   55.776115
H   56.408070   27.897852   63.977074
H   57.338882   70.903191   18.499651
H   92.112938   78.808754   62.788494
H   43.303684   64.759003   86.714279
H   58.605396   70.701141   66.746361
H   74.385567   40.319885   19.457184
H    3.563915   55.683800   71.170441
H   89.348282   35.343254   27.207857
H   97.517593    9.212912   85.121033
H   96.456032   98.423698   56.339546
H   90.905266   78.653351   32.213943
H   39.341171   72.201828   69.042870
H   50.622505   70.523224   73.789558
H   58.909859   31.710690   68.172256
H   86.831017   98.547867   52.466347
H   88.457054   91.786552   16.916946
H   59.894798   58.973236   41.401951
H   57.670467    8.619308   89.659599
H    7.344291   85.279366   32.909409
H   34.196724   57.540791   19.530672
H   62.221107   98.145935   17.173262
H   14.295513   22.872581   62.169765
H   94.367004    6.980228   95.083282
H   21.751736   80.529243   24.266541
H   13.575955   46.717316   87.835846
H    1.083475   62.096905   80.776848
H   60.694645   49.535591   15.519218
H   14.431941   33.140209   40.796177
H    0.312147    9.970427   83.435944
H   53.681484   52.832893   46.900394
H   80.348907   44.227024   88.844131
H   12.951308   44.242687   52.916611
H   44.651131   36.962276   48.856644
H   72.678513   61.952618   68.735062
H   78.272964   64.851700   22.707682
H   17.605375   59.969543   30.683689
H   67.414383   82.395721   74.981812
H   98.560318   51.350689   41.619682
H   78.611023   25.052212   61.084316
H   78.070396   73.740593   74.128906
H    6.791117   52.457214   62.900291
H   21.220783   18.339918    2.363210
H   87.128906   79.347244   37.108612
H   53.260986   43.954243    0.152911
H   11.952015   33.005211   93.698875
H   87.888611   22.272306   63.217430
H   52.461132    4.788207   39.746300
H    1.989197   66.856140   88.654961
H   54.759445   71.025398    4.334042
H   11.935391   48.911648   55.570213
H   18.458944   43.126160    5.505661
H   58.273582   50.463192   80.521385
H   35.366261   97.595650   93.519211
