100
TIME:    2.891, STEP:  2891
H   21.815670   56.901878   96.499222
H   20.851891   61.491776   60.363392
H   29.448454   81.894409   89.402550
H   81.961853   13.540792   81.698059
H   69.276627    4.483900   87.318329
H   83.190071   98.076057   65.052208
H    1.453882   56.552910   16.532906
H   92.659393   38.709919   42.752316
H   82.561638    8.335541   18.108505
H   95.838417   57.893837   20.897699
H   31.341248   82.568298   61.272846
H   45.500313   68.601593   87.144844
H   59.364639   86.797745   37.787132
H   11.935681   96.164986   77.246880
H   15.665768   11.791667   11.803958
H   85.283157   58.871674   93.062843
H   91.630043   73.186996   36.567486
H   62.924263   54.111351   99.317566
H   90.294655   99.632538   15.672205
H   14.631432   44.420719   13.165308
H   92.720688   68.409943   78.775192
H   39.543335   47.921829   73.082932
H   47.145012   71.109901   49.635895
H   50.436295   71.354706   92.362450
H   26.184818   56.889450   57.891808
H   33.402981   41.466587   18.198259
H   12.784275   22.301111   57.335186
H   88.607780   91.381828   62.335270
H   74.032654   11.386315   20.512945
H   11.847533   19.288101   13.214920
H   29.833544   81.296829   80.652229
H   48.296638   72.634651   31.629692
H   73.996429   56.962822   58.241066
H    0.252215    8.779860   49.957367
H    8.908492   40.382782    0.771403
H   23.915749   11.587542   10.702046
H   57.082832   98.660141   36.264706
H   44.500191    6.040618   26.451504
H   23.042122   18.426878   64.152832
H   90.893585   41.537621   65.493263
H   37.671963   55.378933   10.456853
H   71.794548   41.608452   38.622284
H   36.142712   80.836411   10.293958
H   94.749741   61.225845   63.399666
H    5.883154   17.828068    3.501228
H   40.789722   18.058186   94.907906
H   64.320602   82.059784   53.211472
H   56.393810   25.148855   47.456612
H   49.534950   93.017387   29.150358
H   86.515129   74.746880   81.464020
H   43.324055   90.535812   83.899078
H   45.629398   95.475723   84.273125
H   68.848869   38.771729   34.964409
H    9.746357   60.041046   59.388153
H   10.606756   11.943679   24.937567
H   97.183517    9.493649   94.210342
H   79.528160    6.128154   30.945702
H   10.786603    3.868054   39.091019
H   18.284203   60.920650   89.539650
H   68.241425   50.000607   81.383675
H   42.067543   44.126499   88.990891
H   96.307365    1.033264   64.547989
H   70.331398   10.006199   35.225937
H   41.559326   57.520821   48.651806
H   47.071705   29.944324   64.795387
H   23.746346   98.552773   17.123245
H   55.618324   48.310925    6.639240
H   80.664543   82.876221    4.409118
H    0.987875   42.057503   78.914528
H   88.956604   93.551338   95.645508
H   30.230949   98.695641   27.469799
H   35.591133   55.578476   68.288330
H   18.493029   75.304832   87.621330
H   66.570641   66.432617   31.387825
H    1.559196   32.759281   20.555489
H   94.001289   92.858513    1.402604
H   29.438681   75.974747   42.178516
H   67.804764   61.686565   74.099976
H    0.148068   45.026951   49.936409
H   57.745277   51.504765   71.858994
H   67.455521   59.190380   52.776829
H   58.240044   63.107986   45.034157
H    0.712575   55.512482    5.253393
H   49.045940   59.548187   99.369354
H   11.561332   68.051956   67.502419
H   84.754761   15.244843   42.543102
H   60.238075   93.153664   61.397354
H    2.493963   73.834000   65.678017
H   15.679022   33.205360    4.547689
H   10.734901   90.331009   27.564568
H   42.334259   29.537876   94.514359
H   92.195801   12.926105   88.610329
H   70.773331   14.260485   42.569908
H   26.653767   88.593330   21.744324
H    6.605912   90.771088   82.519371
H   32.706360   81.569160   18.125290
H   33.127975   33.588970   70.925484
H   17.479124   40.852814    9.777861
H   70.992912   49.312260    2.885500
H   18.782648    4.447117   19.240057
