100
TIME:    3.220, STEP:  3220
H   99.567291   26.730827   96.198013
H   11.699877   79.328690   81.116653
H   35.103645    5.564105   85.542061
H   82.017075   99.985161   63.665661
H   66.329803   30.854702   78.397537
H   78.089607   97.719627   97.632927
H   84.209831   78.767876   42.261131
H   66.800644   67.171890   12.543686
H   74.474190   76.703476   97.398842
H   86.847343   62.617790   33.781891
H    0.738478   95.806412   29.583105
H   32.942429   85.092758   63.725883
H   38.438179   66.892883    5.087588
H   95.645775   95.150917    2.282539
H   19.668076   82.404099   95.989235
H   72.055084   30.096222   65.753273
H   65.173897   94.949310   66.517654
H   69.952843   38.112160   87.911804
H   95.420219   13.435176   33.004246
H    5.768372   37.435192   35.565178
H   73.197357   35.656364   69.844360
H   71.084885   48.358582   45.065521
H   42.752388   68.434166   40.223129
H   19.868652   75.300537   67.929420
H   14.418777   30.797264   60.320229
H   31.894339   31.664717   87.360542
H   84.414871    8.624652   63.863880
H   60.846684    6.738403   73.209282
H   81.186356   41.235306    4.961740
H   24.462101   11.145057   39.368958
H   42.782787   10.799520   54.622795
H   69.069984   63.543304    1.172549
H   97.169403   32.891243   87.879982
H   14.153625   78.629005   36.096756
H    0.729827   15.512988   20.804283
H   52.520870   37.432751    9.571259
H   88.638893   86.611801   62.188717
H   30.903137    0.019247   49.667149
H    9.154210   11.259371   32.269913
H   59.904583   10.737302   91.377113
H   15.187689   66.667313   18.207502
H   42.225914   56.375198   54.079300
H   38.976582   82.809326   34.057842
H   73.740448   66.739227   95.568687
H   77.343910    4.847952   31.655436
H   36.545193   24.333363   96.243263
H   66.890915   99.951569   56.371651
H   56.411381   28.536196   67.813286
H   59.151031   65.768059   16.026453
H   93.412804   79.751961   58.452297
H   43.298954   58.773376   87.367996
H   61.618549   64.948242   62.676319
H   75.671242   40.679382   15.856300
H    2.128292   54.672005   73.906403
H   84.411819   40.776863   27.735041
H   97.595169    9.147635   83.010406
H    0.386813   96.634727   62.236244
H   86.288567   72.798279   30.616814
H   44.230804   74.821426   64.283318
H   46.531334   75.288452   72.026131
H   62.820808   28.827618   63.338032
H   84.630516   97.970779   49.660851
H   92.666008   87.555840   12.665421
H   64.152458   59.310501   39.718464
H   60.131603    3.667406   95.433311
H    3.535577   82.197151   36.575333
H   29.222286   59.684055   22.524195
H   57.938362    1.691808   20.137220
H   17.385704   18.417656   58.281048
H   95.623352   10.098728   94.952728
H   19.782780   76.310829   23.522713
H    8.463883   44.659668   92.374969
H   97.040970   59.030300   79.187492
H   59.329975   45.611870   11.834373
H   17.421144   33.228664   45.496128
H    1.777959   13.944052   79.263885
H   59.310925   47.458885   47.996861
H   83.261780   40.172749   92.267868
H   15.924373   44.060574   53.608643
H   41.610542   33.585369   43.515274
H   73.891342   62.594036   72.440720
H   82.924667   65.256607   17.523119
H   21.528151   61.004517   36.588902
H   71.680099   87.701141   69.318787
H   95.541489   47.472378   35.609459
H   77.184387   27.329578   65.389771
H   82.211235   69.232689   77.085297
H    7.788958   47.493317   62.255562
H   22.507641   14.887999    1.855957
H   81.647522   76.796707   39.324722
H   55.798279   47.301823    1.462262
H   16.539728   37.667793   94.880486
H   91.862946   24.132704   68.011986
H   58.453854    8.549023   43.926399
H    0.917135   61.302624   90.079704
H   59.880386   68.577034    1.131561
H    7.014184   52.469723   52.004570
H   18.686468   43.654053    4.513615
H   55.320030   50.730450   75.328545
H   39.217136   96.004402   87.546829
