100
TIME:    4.003, STEP:  4003
H   46.615387   54.925812   95.481155
H   89.922890   21.779871   30.507330
H   48.562653   61.895790   76.354332
H   82.148499   67.726555   20.744577
H   59.316544   93.615608   57.166595
H   65.950813   96.871346   75.177055
H   43.172749   31.639378    3.492770
H    5.258392   34.912174   40.652058
H   55.226555    1.421169   48.112934
H   65.449135   73.860512   64.445404
H   27.905716   27.311710   54.159679
H    3.055439   24.340128    7.991468
H   88.627487   19.520931   27.263992
H   56.875710   92.737495   61.871342
H   29.193325   12.463421   58.353298
H   40.573074   61.612053    0.756803
H    2.209608   46.737347   37.797234
H   86.679527    0.034585   60.766071
H    7.616445   46.285187   74.254929
H   84.670494   20.808050   88.875511
H   26.733017   57.706852   48.593857
H   46.151855   49.398026   78.385864
H   32.298210   62.066078   17.819427
H   47.119438   84.691376    9.774883
H   86.414337   68.702454   66.102882
H   28.301088    8.334470   13.969622
H   16.895304   76.078262   79.395851
H   94.780701   43.286209   99.087852
H   98.211731   12.275647   67.948311
H   54.485748   91.765160    1.616056
H   73.599846   81.012016   92.674324
H   18.508894   41.912117   28.686272
H   52.324032   75.603920   58.418808
H   47.238144    6.871707    3.111861
H   81.267059   56.324028   68.481873
H   20.608679   98.941742    6.869317
H   63.737831   57.937485   23.885916
H   98.541985   85.694023    4.922933
H   76.105682   94.200127   56.391701
H   86.155434   37.435760   52.982693
H   61.674988   93.537537   36.654644
H   71.854294   91.514481   90.866058
H   45.721020   87.504745   90.614769
H   23.740103   79.857727   72.126221
H    9.425432   73.952118   98.657776
H   26.443470   39.267902   99.421333
H   73.008102   42.535057   63.892685
H   56.453197   36.599564   16.260841
H   82.041428    0.922063   84.793091
H    9.832416   91.663750    3.690270
H   43.239216   83.179466   95.623810
H   99.671753   92.290665   11.271633
H   91.908073   45.219482   70.382545
H   83.992485   41.894012    8.458236
H   22.069077    9.401239   34.393932
H   98.574875    8.323248   56.355240
H   50.023716   74.041756   36.706139
H   27.984123   98.853340   10.446636
H    5.985632    7.904943    4.170219
H   94.862747   35.472187   49.755745
H   12.212694   92.414574    2.291271
H   56.840324   90.682724   14.230224
H   45.824398   34.126030   58.972740
H   17.917883   63.569832   18.457653
H   91.208138   41.131092   68.351021
H   55.434486   43.271767   82.872406
H   66.400314   86.756439   60.327251
H    3.851097   46.473465   57.569149
H   56.412643   62.156281    9.170515
H   11.487555   49.482658   93.303955
H   94.918343   23.035835   14.128887
H   43.901260   18.673569   49.703243
H   45.988739   20.302052   59.114014
H   42.089977   96.061348   65.309380
H   55.170841   34.345768    4.852155
H   20.289873   64.128990   26.578766
H   30.401068   79.593552   61.844166
H   20.048550   88.974236   35.510796
H   53.469810   41.760654   62.348335
H    3.210449   90.941780   76.059227
H   89.208206   70.694534   19.238848
H   41.675026   70.370193   52.049316
H   71.068153   74.075226   11.165936
H   25.550554   54.704536   97.805344
H   57.416595   98.493706   59.706451
H   59.165752   56.093018   19.763855
H   34.506050   12.302223   14.422100
H   20.390722   84.804497   54.113251
H   38.758163   71.291634   95.451424
H   12.419259   44.582291   67.312759
H   87.841827   89.582130   17.997843
H   74.477890   96.548393    9.801779
H   42.053490   47.627724   28.562662
H   34.133030   56.045357   96.720711
H   87.380302   91.164879    8.072164
H   24.553009   37.656563   60.688789
H   44.862793   97.404762    6.972584
H   21.559874   50.320831   91.982140
H   18.019524   54.105656    9.743050
H   87.852898   75.908485   12.118028
