100
TIME:    7.629, STEP:  7629
H    1.404485   22.405132   92.161453
H   89.782761   18.267582   59.139317
H   10.906473   22.764526   33.787182
H   82.757111   18.335739   21.990822
H   26.836592   84.255333   58.851517
H    9.711257   92.943031   34.271309
H   53.133205   76.484848   87.050888
H   20.261940   48.606754    7.723729
H   66.092491   52.796173   19.868118
H   66.384651   25.926134    6.424466
H   90.624039   73.212006    4.885973
H   64.665833    6.092994   49.888237
H   57.273735    0.213295   66.956886
H   77.338905   81.561165   37.810673
H   73.267830   88.572952   84.023224
H   94.777023   44.468811   99.766876
H   10.628328   86.569962   67.886322
H   64.210510   23.611679   35.066956
H   64.085037   98.397552   65.285477
H   86.978714   43.801975   35.750374
H   11.561035   96.725647   50.177753
H   93.779999   54.211594   69.598465
H   83.884056   32.576057   14.075162
H   10.213465   28.093233   40.477959
H   56.727242   81.142426   92.881813
H   11.635967    1.200381   72.960320
H    4.221334   25.347902   51.341312
H   88.828941   12.535621   18.946054
H   77.055977   41.254292   96.545891
H   93.523499    2.021467   89.872551
H   16.304068    6.163307    5.796833
H   47.456936   41.729343   93.009346
H    7.732929   10.308664   85.077522
H    0.444593   74.570412   50.353226
H   91.090813   82.047691   89.206055
H   35.813267   82.964615   95.441566
H   11.519711   25.145403    9.600648
H   48.670853   19.336689   60.797455
H   23.049023   15.194159    5.005857
H   44.626717   97.981430   38.268318
H   13.863592   17.953184   22.080412
H   57.283394   71.520279   69.432732
H   76.942413    9.251978   52.523373
H   92.206726   40.694908   26.658859
H   94.896751   30.891003    8.943947
H   79.648003    8.426997   14.154917
H    1.337039   39.729622   98.694313
H   56.653255   73.946213   40.616817
H   88.034126    0.617201   40.150269
H   85.912354   46.851696   50.113205
H   42.977749   33.113220   33.847031
H   75.897827   55.824856   73.240417
H   67.121666   66.244263   59.790108
H    0.025100   82.730255   68.463089
H   33.363052   27.173717   65.238388
H    3.097669    4.508756   32.917633
H   79.896957   69.414818   81.568779
H   57.984543   56.422569   17.049284
H   91.956383   61.121494   25.807697
H   55.582405   14.177884   46.623680
H   40.944164   23.788166   19.579590
H   28.149818   56.932419   50.167084
H   91.993248   86.693512   10.327026
H   66.910759   83.321457   20.010937
H   35.130501   51.529354    6.024238
H   32.685760   63.013145   97.269867
H   75.479401   12.117470   35.391033
H   53.378578   53.848259   30.912918
H   37.130745    1.615051   81.755402
H   84.965782   31.829302   85.662613
H   79.776924   76.324905   70.636818
H   45.037563   98.286522   15.249206
H    9.565733   40.950680   66.144836
H   62.260807   66.578796   49.863983
H   29.967157   39.548489   79.737656
H    6.009242   96.519798   82.594154
H   59.658894   65.492256   26.042440
H   90.404617   51.879986   35.760983
H   27.351706   31.109943    2.795975
H   25.391521   93.431236   63.676033
H   60.165276    8.207864   35.957809
H   13.770972   93.945831   48.761669
H    0.425433   34.701939   56.491310
H   75.011620   64.989258   66.624992
H   80.861053   71.680199    8.206998
H   75.711288   89.280014   71.564087
H   76.678444   48.662025   87.323448
H   78.724327   94.593628   16.477074
H   14.006951   69.401772   65.795418
H   91.832489   95.396866   96.936234
H   36.232838   85.375450   94.572311
H   42.767643   69.253113   78.888283
H   74.487137   56.428455    8.966861
H   84.579323   76.015465   41.210491
H   24.691647   66.371231   91.393372
H   24.045746   94.471680   73.401085
H   57.048088    5.492448   98.437599
H   23.551584   63.940510   25.729628
H   45.284996   69.746071    6.027836
H   13.078579   82.860733   62.815472
