100
TIME:    1.014, STEP:  1014
H   48.749428   29.032265   98.217667
H   73.063972   59.724064   41.963009
H   97.186371   46.854961   11.433846
H   81.646805   90.872520   84.582756
H   86.088745   54.034096   38.210869
H   12.292496    0.110055   79.165764
H   99.827553   29.807699   69.748894
H   40.187897   76.325363   15.091389
H   28.701942   88.801346   36.259247
H   47.129524   30.943176   47.398399
H    5.935211    7.043054   42.075768
H   17.137905   74.517342   20.751268
H   78.761230    0.358797   24.345819
H    4.874563    1.950876   34.406116
H   92.834663   79.449982    2.029397
H   60.753571   23.044773   48.869614
H   42.542442   49.054428   65.677528
H   22.812897   45.389923   64.392868
H   61.053894   20.891283   16.784700
H   65.201332   84.272400   85.365166
H    4.104403   55.271210   29.722885
H   59.576771   45.438301   32.915188
H   72.205666   86.375420    3.337523
H   24.829971   48.843082   31.766144
H   93.318108    5.756672   44.044006
H   42.009525   97.396194   94.131027
H   74.641083    0.325316   20.087896
H   46.982246    3.769373    0.289775
H   33.219589   41.089725    9.240456
H   39.873974   65.743393   63.998653
H   55.989628   12.974012   29.172310
H   29.781622   24.497108    5.393010
H   41.782703   94.293633   89.146080
H   20.945976   80.795723   29.032427
H   55.567268   82.269447   86.474274
H   60.718353   64.139603   17.155302
H   77.054344   67.401222   88.364632
H   22.081024   40.395092   93.997169
H    5.133812   58.862083   44.940208
H   67.685097   17.255709   17.813116
H   65.944443   90.974861   66.233932
H   40.488640   57.368324   50.439503
H   19.975012   69.580597   74.714760
H   14.608721   29.764494   79.877205
H   68.697594   91.884109   42.879417
H   65.001030   82.266167   87.294701
H   46.786976   80.440750   36.287788
H   56.293568    5.823511   31.318480
H   94.671989   48.469131    4.024198
H   47.156612   46.183125   12.744987
H   43.467258   71.748314   64.108322
H   54.411125   69.648163    7.493759
H   29.913561   27.888245   43.978607
H   53.208691   90.659859   76.561844
H   60.036407   47.397861    9.010588
H   94.834976   11.466280   58.107849
H   60.533501   60.288460   52.427315
H   50.553894   81.127739   87.436600
H   70.248085   81.612213   33.637775
H   92.105621    5.726424   34.769005
H   23.664728   31.415733   35.336151
H   62.922302   18.507187   49.475639
H   43.012123   38.006752   63.993752
H   12.668402   47.310394   99.608009
H   72.571007   79.858025   89.993050
H   39.053596   91.864204    6.141262
H    6.213152   83.418793   16.018219
H   10.321933   75.528671   14.677665
H    7.438733   76.926758   96.635323
H   50.926613   99.143700   99.597931
H   89.832558   26.408781   49.986088
H   90.358292   17.873024   30.861555
H   40.877518   68.148262   35.748356
H    7.872714   85.211945   42.943565
H   11.061505   30.086500   78.265800
H   49.632137   72.561546   27.700665
H   59.020420   38.659782    8.976448
H   79.619888   84.418129   70.440720
H   10.155199   50.532078   28.994919
H   49.797104   53.730652   33.564087
H   30.725109   39.771954   40.592587
H   17.403984   50.849747    1.987026
H   81.955254   24.181292   26.478245
H   19.923468   98.930885   70.812355
H    2.955529   85.457733   49.456490
H   27.953945   46.301266   12.198603
H   34.877495   29.626869   71.894501
H   72.278564   24.110859   85.201088
H   76.725777   37.713768   19.904022
H   76.686050   67.559647   60.462933
H   65.519600   28.185259   54.875561
H   53.312687   71.768639   52.842506
H   50.343834   58.012009   97.360344
H   45.235161   74.740227   95.187737
H   39.061405   58.902580   39.386406
H   77.673813   55.689079   15.074741
H   82.115982   25.871626   78.872894
H   10.588214   24.871277   39.812241
H   60.407402   41.221249   60.112301
H    2.214265   52.658886    0.022899
