100
TIME:    2.427, STEP:  2427
H   53.194000   99.453148   96.924026
H   33.758873   36.332718   31.094351
H   21.472746   48.511841   94.847130
H   81.883972   32.658714    7.130356
H   73.432632   67.292267   99.899628
H   90.383430   98.578743   19.099539
H   25.771767   25.220024   80.247414
H   29.128883   98.569000   85.354912
H   93.967644   52.947266   47.316525
H    8.517645   51.231483    2.726793
H   74.501404   63.898136    5.968912
H   63.211128   45.343536   20.172411
H   88.880928   14.870699   83.904747
H   34.910378   97.595161   41.936321
H   10.021175   53.237671   34.108307
H    3.939480   99.454681   31.579828
H   28.940262   42.498390   94.325974
H   53.008614   76.675560   15.405201
H   83.065895   80.169403   91.226852
H   27.131310   54.272648   81.574104
H   20.255005   14.601437   91.370651
H   95.059204   47.305862   12.596771
H   53.340080   74.883583   62.911041
H   93.546890   65.789764   26.823616
H   42.779900   93.691010   54.468590
H   35.530544   55.290440   61.688202
H   52.796486   41.589893   48.127544
H   27.758993   69.723869   46.996281
H   63.943542   69.288429   42.446098
H   94.055931   30.771988   76.328270
H   11.574342   39.688213   17.363808
H   18.999275   85.456673   74.584526
H   41.312328   90.911797   16.440283
H   80.647469   51.302658   69.505463
H   20.443165   75.457489   72.514900
H   83.572433   75.138664   12.296834
H   12.580232   15.653913   99.703552
H   63.676582   14.533070   93.708672
H   42.629158   28.535460    9.118113
H   34.597378   84.975731   28.985128
H   69.381355   39.459377   99.523605
H   13.496277   20.782402   16.823957
H   32.146008   78.053940   76.777580
H   24.378531   53.448380   18.033522
H   46.131008   36.133610   63.795998
H   46.775928    9.208088   93.024605
H   60.692379   56.826385   48.754562
H   56.369030   20.371572   18.746895
H   35.973061   31.445225   47.660950
H   76.787102   67.688042   13.917660
H   43.359455   35.332710   79.006744
H   23.080050   38.531612   14.733242
H   59.225288   36.081299   61.914726
H   20.490376   67.611504   38.912567
H   47.547417   71.269608   20.999891
H   96.602951    9.981289   10.005997
H   50.112110   19.517235   86.815269
H   45.337250   47.687592   51.042191
H   81.689018   41.315914   25.160772
H   98.862762   14.334715   94.580940
H   12.797436   65.703316   25.168011
H   12.774254    5.352997   85.540421
H   38.854649   41.650444   67.056564
H    9.696672   54.996773   61.250805
H   28.653202   67.004608   21.582624
H   52.250740   21.619545   89.688530
H   92.845375   32.271008   84.237442
H   12.716408   56.340088   82.227234
H   77.864220   75.397591    8.014403
H   79.554260   70.215401   96.622559
H   44.964806   30.266985   33.036839
H   73.849243   70.977646   34.315025
H   48.746994   98.258446   99.515862
H   76.780113   95.793701   58.964729
H   79.186302   32.097294   85.380722
H   83.034248   63.122078   32.623608
H   87.310913   16.190317   33.972706
H   46.005199   92.024971   48.475025
H   77.895401   46.389866   44.757332
H   80.500648   76.775314   11.832925
H   58.376667   54.390087   25.044605
H   23.423759   60.077713   83.832985
H   71.358505   47.766876   61.059635
H   17.125408   19.843111   41.750183
H   34.155289   97.073196   12.481927
H   95.431519   98.201469   10.321511
H   29.248571   26.890259   39.272110
H   95.025070   10.982924   70.506630
H    6.049124   59.040565    8.343899
H   51.759609    9.420647   10.977983
H   23.345490    4.483313   84.715530
H   57.863873   78.034477   79.767311
H   41.004566    0.355576    6.674284
H   81.806709   60.449574   90.458794
H   14.629333   32.333817   71.856773
H   94.381805   99.892403   42.091354
H   69.958542    6.961097   97.610298
H   15.776250   36.902130   17.202351
H   93.096916   47.312138   41.751648
H   89.966202   16.363823   63.930939
