100
TIME:    1.416, STEP:  1416
H   21.563982   92.166977   97.849625
H   61.881630   81.518883   67.321098
H    4.094571   75.776924    6.713602
H   81.714279   74.310631   62.549107
H   82.488068   86.256172   27.310692
H    6.058665   99.674034   18.976671
H   78.757149   56.953861    1.185825
H    8.591492   11.104532   78.181969
H   18.820015   50.150803   10.954415
H   36.143471   36.715019   63.141396
H   68.542160   23.218098    3.353551
H    1.793647   94.667641   92.137032
H   53.189743   76.037346   84.389915
H   84.969810    0.711514   64.999504
H   97.723488   43.543102   82.706955
H   44.590393   87.882500   15.500485
H   10.223118   75.639328    2.279250
H   31.403610   25.840759   50.456345
H   67.315300   37.756805   37.962452
H   54.367035   75.743027   12.740458
H   80.249191   15.249710   18.811974
H   98.123039   45.968895   98.684608
H   66.838387   83.105980   91.835983
H   87.479759   53.664433    1.909034
H   78.939934   73.872505   47.009811
H   40.166248   85.416428   56.450279
H   39.975533   83.616165   28.065207
H   13.064110   22.533794   13.577453
H   41.960587   77.562683   90.237816
H   55.288799   55.793991   95.956963
H   71.803169   49.024536   97.362549
H   55.164249   13.391261   68.177864
H   70.099808   64.880943   25.361418
H   37.931114   43.954720   12.097717
H   45.574928   51.881447   10.953842
H   95.670074   95.717606   15.771951
H   15.612180   52.679543   20.040411
H    5.466509   33.037319   22.364986
H   87.062363   50.280571    6.409454
H   29.822390   79.622383   49.442570
H   38.472961    4.769650   75.704880
H    4.359184   75.409645   69.326187
H   23.437674   71.991272    3.753025
H   88.938545   36.502220   19.183340
H   33.828270   76.021500   77.280960
H   59.819149   89.924812   88.921120
H   51.031727    2.124817   39.722847
H   56.315037    9.962450   56.191982
H    6.423286   15.176666   87.989304
H   55.587841   52.301823   84.627892
H   43.436588   32.938286   68.346939
H   73.948021   32.344501   81.104355
H   38.252777   30.219177   20.630157
H   43.900295   84.102577   94.301468
H   28.032089   82.639328   12.421877
H   95.337967   11.043798   44.422821
H   86.019989   48.689003   90.660744
H   20.619228   43.164207   77.082352
H    1.954730   98.597351    2.775841
H   65.575928   36.626614   23.335167
H   49.023327   12.722133    3.994015
H   48.654541   14.765173   31.285164
H   70.280258   10.592560   36.415138
H   40.273544   49.497177   88.695564
H   88.525627   47.750942   27.430178
H   14.358030   71.879524   29.910322
H   73.960129   97.318512   35.427563
H   82.552879   98.519028   33.895588
H   27.475235   48.041595   71.424446
H   59.069542   19.363401   98.751434
H   77.067635   99.055641   45.164738
H   57.210606    4.530842   60.295654
H   14.665779   48.264156   25.440113
H   99.025322   59.773598   19.051506
H   30.443321   30.658499    8.740021
H   59.136822   98.324486    0.651463
H   95.518333    3.817277   16.089617
H   98.506577   58.133110   92.639786
H   29.425264   49.354343   33.477867
H   30.082321   31.835234   98.931618
H   38.592007   43.930828   64.619591
H   47.567348   53.475113   68.372391
H    7.392537   30.890390   64.766876
H   47.578754   33.330547   34.094032
H   83.381683   60.313881   10.487085
H   18.700756   61.068951   40.114693
H   61.726158    0.398177   91.063354
H   78.749969   91.926361   81.023811
H   85.068062   15.331800   16.614647
H   41.145088   51.018570   74.834969
H   81.971077   49.890804   63.365063
H   83.056618    2.003194   60.500847
H   76.137444   70.057724   28.460901
H   84.089607   99.123009   22.292664
H   32.111546   22.892738   48.624260
H   10.877426   39.814201   94.310516
H   50.206741   48.941723   55.753723
H   12.064216   28.294067   33.380707
H   41.256950   42.954113   26.439526
H   27.179794   42.332241   61.304878
