100
TIME:    4.447, STEP:  4447
H   16.589890   14.208687   95.074661
H   77.660316   45.840935   58.504524
H   56.194580   93.839455   71.144432
H   82.223022   49.434319   96.407234
H   55.339676   29.204165   45.127594
H   59.065083   96.390327   19.147211
H   19.903465   61.621708   38.214199
H   70.360863   73.323303   99.884422
H   44.312187   58.732483   20.163794
H   53.315285   80.235695   81.829803
H   86.605927   45.177128   11.392292
H   86.110817   46.595680   76.386894
H   60.294846   92.670769   83.145752
H   34.891151   91.368965   95.657990
H   34.593803   72.803497   37.008968
H   22.720325   22.778313   63.901306
H   66.505836   76.104553   78.216301
H   96.165428   78.441139   45.370556
H   14.531902   64.912613   97.648666
H   72.706017   11.379080   19.105021
H    0.385444   13.504002   36.544693
H   88.718567   49.987442   40.575134
H   26.370171   58.455055    5.115518
H    5.867036   90.016449   76.800598
H   70.533966   33.490349   69.381935
H   26.274385   95.189957   72.241997
H   78.609566   57.622257   88.203224
H   57.316097   64.010635   13.764672
H    7.866572   52.558468   46.959663
H   71.511078   80.776268   36.911903
H   91.072319   20.826897   57.546455
H   46.543438   29.646156   87.583000
H   83.598244   43.118263   98.417831
H   65.997849   66.181732   84.406593
H   70.230743   22.761162   95.520508
H   59.207676   33.737156    5.447077
H    6.324534   41.677719   58.871510
H   80.188774   77.570915   36.253727
H   57.365101   84.525566   13.365030
H   44.335556   95.869667   87.915161
H   31.330238    8.772527   47.115093
H   31.950119   11.441091   11.725384
H   49.545452   90.167282   22.685644
H   95.388458   87.296570   15.539193
H   70.910530   56.433685   36.652851
H   20.715290   47.736530    1.225366
H   76.476852   66.680809   68.154182
H   56.476910   41.172623   43.733070
H   95.022141   64.147980   67.083496
H   19.144520   98.418327   72.634499
H   43.205341   40.314659    0.305215
H   21.248152   51.091419   82.124786
H    1.115495   47.793945   44.594715
H   73.708183   34.648254   28.049561
H   86.717926   48.312893   38.170940
H   99.130417    7.855910   41.240433
H   78.171753   61.230415   78.934105
H   94.922989   56.923470   99.009750
H   41.001717   26.665977   70.085472
H   65.561295   69.600204   37.127327
H   40.221222   71.764671   67.671700
H   41.081902   86.550034   94.140701
H   75.967979    3.827432   28.526329
H   48.407547   65.987869    6.401714
H    8.830686    5.669096    9.698646
H   28.158730   21.199135    9.124858
H   30.777819    2.108072   81.763046
H   73.181007   71.865799   78.794914
H   78.540634   30.253265   81.324799
H   20.482931   71.814941   92.369019
H   80.819771   92.825699    8.802120
H    7.292125    3.937580   82.210716
H   17.038706   98.340950   47.728790
H   32.313793   67.965828   38.927910
H   76.578133   34.979221   38.511196
H   30.787584   92.583580   96.703323
H   70.714493   41.110088   69.696281
H   40.908474   59.943302   60.032555
H   74.761650   40.456486   67.301918
H   81.435852   66.762154   37.808128
H   97.893631   75.287918   45.775326
H   74.989494   73.269852   14.922071
H   99.156075   81.488831   53.454433
H   56.095558   92.698189   57.251343
H   35.797882   70.723381   16.665497
H   48.945812   72.401848   50.596436
H   64.159798   80.019791   35.593735
H   27.536551   49.256584   49.496155
H   47.972031   46.570015   91.820076
H   73.164688   26.313766   83.186356
H    6.012244   13.557446   27.374308
H    7.330032   29.937767   18.262289
H   70.514854   60.950569   62.897869
H   77.047623   82.976593   26.657385
H   79.704338   51.395126   18.274132
H   61.225555   20.124264   37.755745
H    9.620673   22.884640   81.437744
H   23.189238   54.101227   84.875267
H   96.868439   56.019566   72.554726
H   15.431984   64.513100   69.347351
