100
TIME:    6.263, STEP:  6263
H   93.781570   47.673119   93.412064
H   27.505909   44.247364   73.008644
H   87.420242   24.488976   49.826260
H   82.527832   74.614471   96.865845
H   39.073929   74.764496   95.890427
H   30.897907   94.422920   98.991814
H   24.726830   84.245445   80.227837
H   27.626846   30.431034   33.146030
H   99.671379   84.131409    5.852725
H    3.695028    6.311220   52.939518
H   17.686020   18.247686   36.465782
H   16.798767   37.622303   47.121559
H   44.411819   82.854164    2.698418
H   44.974205   85.771553   33.857319
H   56.676399   10.590790   49.714222
H   49.702560   63.944130   13.157128
H   20.474037   96.220299   43.533943
H   34.998409   90.081619   82.417030
H   42.814198   41.094589   93.322006
H   23.781616   72.808876   42.746758
H   92.621429   32.715984   87.254463
H   62.820251   52.398209   85.925995
H    2.122325   43.685646   53.158997
H   37.134853   11.751925   41.928699
H    5.584081   89.472290   82.793556
H   17.996035   41.509956    1.473366
H   22.013039   82.132095   24.234335
H    4.088542   48.775368   73.795914
H   47.353981   17.320454   61.116638
H   41.143772   35.830711   81.279343
H   62.546066   83.670723   13.870308
H   61.206882   79.470779   19.466743
H   11.513985   10.251707   62.017456
H   42.728905   99.756241    7.901573
H   25.087509   85.473091    6.096016
H   17.069605   75.973656   99.735329
H   80.501869   75.170532    1.965330
H    5.132402   44.338474   64.402702
H   80.709564   44.955742   37.380730
H   73.288193   25.861958   30.793879
H    7.220337   71.079948   89.899269
H   72.402420   66.163498   99.697655
H   65.186676    1.057678   53.856407
H   79.429535   17.767050   93.098961
H   13.387260   84.785904   92.051743
H   97.281609   82.373978    8.605333
H   90.664352   65.441238   85.583748
H   56.573895   59.876846   56.096867
H   48.102119   13.748772   94.639755
H   57.234150   26.058809   45.623230
H   43.071545   64.991287   19.448711
H    9.503147   82.580017   62.909187
H   38.786068   58.323730   39.123554
H   31.655121    5.013736    8.185729
H   42.125908    7.463895   53.619244
H    1.396318    5.945655   79.419495
H   93.299416    8.830405   51.650902
H   59.699615   85.424248   52.235336
H   84.226273    3.395974   30.672005
H   45.724770    9.182378   85.475975
H   54.775654   87.313248   26.083385
H   76.631813   69.646957   11.972064
H   99.255013   79.907021    3.997742
H   73.109543   75.880325   57.101955
H   80.912674   60.629818   78.814766
H   16.600712   30.920677   16.501280
H   85.076004   64.887878   69.439774
H   47.737572   75.724770   65.610214
H   69.050667   99.767105   67.429535
H   57.270073   63.154587   88.545044
H   23.154278   69.266541   87.019814
H   57.553288   43.668289   15.168952
H   98.631348    8.513817    1.162254
H   92.337379   53.033085   31.026728
H   64.133537   37.570103   76.175797
H   73.721031    8.971893   74.508209
H   35.597256   83.722191    1.816746
H   26.227459   41.198242   60.323334
H   61.844738   35.122318   87.557899
H   92.382034   67.844368   81.358177
H   33.429642   94.075272   54.313679
H   11.267986   85.087341   63.040852
H   14.023034   11.857930   26.399757
H   81.033577   48.097801   91.389122
H   47.373390   57.132057   40.624710
H    7.145372   39.104523   76.704880
H   85.446327   47.981667   22.187490
H   56.755272    3.901735   30.640236
H   85.657578   45.458046   76.967537
H   12.605031   51.600529   48.103294
H   80.330406   11.616245   65.724899
H   41.697475   66.516785   52.859207
H   86.923935   15.439702    3.331981
H   52.561489   93.142159   49.103439
H   48.308952   88.727982   60.003056
H   11.219756   48.412201   43.956940
H   65.474846   27.100531   76.998367
H   26.188288   96.352539   53.150452
H   10.358167   63.847630   20.444969
H   28.230288   17.916557   94.405434
