100
TIME:    9.041, STEP:  9041
H    5.916463   92.918983   90.868729
H   50.785568   94.781769   48.169521
H   35.177380   24.349380   17.212795
H   82.994110   60.161430   44.595024
H   14.184050   97.433273   20.566933
H   87.817505   91.413307   74.107025
H   79.130562   71.830482   97.471138
H    9.281525   70.762527   78.079521
H   31.382835   17.036926   30.988066
H   27.817781   46.200367   61.712440
H   59.283234   30.025318   68.873756
H   10.770119   76.869286   49.380516
H   67.235077   14.748846   26.638039
H    7.425612   77.208992   45.264774
H   90.417976   62.446144   16.119690
H   38.004868   20.970177   82.558655
H   97.083473   79.962288   96.426247
H   94.400986   54.903847   86.120682
H   86.082901   57.636189   39.676144
H   48.933788   13.818270   31.885889
H   27.770958   56.157936   11.856363
H   29.149820   56.086044   49.353607
H   65.031822   21.097471   73.676575
H   79.019058   44.984833   35.610699
H    6.227029   69.164764    3.308232
H    4.977110   59.574814   40.083675
H   82.463753   66.655289   79.355209
H   69.687531   78.443024   65.622307
H    7.758608   69.362267   29.798389
H   47.664680   67.074661    2.122598
H   71.877403   32.779972   94.083954
H   36.611469    2.720644   62.293419
H    7.192125    7.000154   12.281636
H   60.105988   45.168945   90.869102
H   55.950249   75.139442   75.115219
H   58.556065   93.561905   91.003212
H   46.948257   73.433846   20.860617
H   90.311073   93.497246   60.438210
H   63.450726   84.429955   68.172363
H   11.632658   65.796104   49.362183
H   17.363184   66.398575   55.346523
H   38.287735   77.057449   41.519741
H   89.094025   17.722565   54.512806
H    2.047144   64.402321   64.714180
H   72.415329   75.190102   29.774595
H   61.422112   35.354046   19.891382
H   12.375796   16.518652   12.253645
H   56.739437   88.489365   27.982990
H   29.307732   83.674599   83.825226
H   15.554592   68.345421   51.386707
H   42.880795   96.792885   48.734909
H   44.521999   24.800953   80.550575
H   96.401878   74.431519   77.786179
H   67.319183   59.696198   30.769768
H   20.937130   50.915382   77.239182
H    4.856314    3.023469   84.849808
H   69.410889   28.672447   15.861926
H   52.844177   23.076445   80.679222
H    3.322988   20.783308   17.407549
H   62.404659   22.709232    6.463036
H   30.014231   58.121326    9.489304
H   78.035149   43.789719   86.278542
H   87.854263   90.341087   13.501953
H   63.870533   91.013168   81.676880
H   91.175659   38.754299   37.517994
H   45.945900   92.818810   80.758842
H   62.192184   60.930576    3.560958
H   55.842072   34.602486   98.414688
H    7.503139    0.157742   93.196442
H   13.643004    2.751589   82.667801
H   34.933941   80.249901   53.702126
H   28.763140   51.403709   18.747826
H   17.501831   71.104454   29.938282
H   31.181553   77.214333   65.968086
H   97.985855   41.627621   86.796417
H   39.393127   87.016350   87.584702
H   87.898270   43.279301   51.087700
H   56.735836   59.557899   13.749701
H   95.063103   26.962452   18.554186
H   56.146049   16.513037   42.030937
H   87.808037   22.815653   20.351662
H   19.725761    3.105823   30.634230
H   89.737190   58.315708   90.961861
H   72.154549   85.816994   37.661465
H   12.109650   83.351364   71.330124
H   43.213917   41.145042   69.617661
H   70.982796   45.997810   54.652977
H    1.433082   81.605202    1.836874
H   43.312016   90.784248   54.247078
H   66.993912   37.305489   47.409775
H   94.017632   61.616489   24.391502
H   47.241344   75.449142    5.796377
H   64.999039   98.788658   18.158991
H   21.043177   61.679920   36.418270
H    0.275713   39.892246   23.838125
H   40.671143   38.712158    0.469303
H   44.970024   86.523323   17.231968
H   20.826090   33.809391   97.380760
H   78.020714   75.843422   87.758736
H    0.783713   46.626522   26.791668
