100
TIME:    0.953, STEP:   953
H   52.874672   34.626289   98.273514
H   74.760796   56.416515   38.115139
H   96.138306   42.466305   12.150085
H   81.636566   93.385643   87.926140
H   86.635117   49.144676   39.864876
H   13.238407    0.176443   73.124962
H    3.024522   25.688505   64.978615
H   44.982376   71.047806   20.692375
H   30.201439   94.666229   40.099205
H   48.796562   30.067539   45.009537
H   11.609283    4.588629   47.951355
H   19.466267   71.459709   25.093153
H   82.641678    4.049458   30.408728
H    7.894848    2.138949   29.763821
H   92.092827   84.898804    4.961702
H   63.206192   28.380505   53.933090
H   47.446754   45.020401   60.123528
H   21.509331   48.356339   66.507614
H   60.104027   18.332087   13.571161
H   66.852547   85.551300   81.203621
H    7.724172   61.344124   31.378521
H   53.727711   45.357788   38.109440
H   73.020103   86.871529    5.082863
H   30.497528   48.111485   36.296745
H   95.499870   10.594433   43.593971
H   42.289227   99.214020   99.848846
H   79.900955    2.861089   18.877409
H   52.129028    0.922034   98.273666
H   31.893219   35.555271   12.123798
H   37.534908   67.253128   59.149258
H   53.590061    7.503556   33.999229
H   25.930029   26.182297   11.040062
H   37.485729   98.756752   83.650719
H   18.368629   86.386024   31.602095
H   57.083519   86.880562   82.759506
H   55.414734   59.347912   17.365194
H   71.203423   69.635109   83.558052
H   24.602058   41.511570   89.692284
H    7.876199   60.164253   50.786942
H   73.430840   22.966314   13.013750
H   70.113434   88.881523   64.796799
H   45.970970   54.630417   47.573612
H   19.449583   69.214798   70.308418
H   18.503828   28.742258   73.912727
H   73.989113   94.291122   37.659103
H   65.780098   81.119438   87.055489
H   46.142872   77.150421   35.766548
H   56.290310    5.195463   27.544142
H   92.888603   53.520973    6.457622
H   45.877247   45.254665   17.011246
H   43.471912   77.637398   63.465153
H   51.446571   75.308273   11.498459
H   28.648157   27.534546   47.521645
H   54.621159   91.654869   73.870010
H   64.892700   42.050030    8.492954
H   94.758652   11.530388   60.184433
H   56.666550   62.048576   46.625725
H   55.096130   86.888374   89.007767
H   65.436852   79.034866   38.321026
H   96.131271    1.037589   36.503990
H   19.816626   34.252304   40.092003
H   65.087311   19.074966   52.235886
H   38.874313   42.166435   68.178566
H    8.479631   46.978569    1.264235
H   70.150032   84.729759   84.312462
H   42.800941   94.896706    2.534582
H   11.107458   81.309631   13.072979
H   14.535718   72.040085   11.761512
H    4.398378   81.309830    0.460905
H   49.690994   96.075829   99.726379
H   91.769524   30.559389   50.717686
H   95.388260   19.897484   26.395411
H   44.854767   71.165871   37.312542
H    9.215257   89.071915   46.568977
H    8.120570   29.999704   73.641655
H   48.189884   68.652245   31.805199
H   53.481777   43.946648    7.897085
H   76.753998   88.406548   67.072205
H    7.231150   50.710789   28.314747
H   52.788651   57.053093   38.819305
H   29.531376   39.140881   36.946697
H   12.827076   50.451370    7.088083
H   78.095284   23.163244   20.668278
H   15.727026   93.711037   76.384041
H    5.925832   89.273026   55.369774
H   29.358036   44.060398    7.962479
H   30.803442   34.062065   68.985794
H   71.296585   28.994461   85.834953
H   75.459908   41.110207   20.403156
H   82.079025   70.069977   58.282101
H   63.023228   24.891439   53.587353
H   48.799305   67.180794   51.680420
H   46.429878   56.184410   92.641258
H   39.339096   71.040352   91.074593
H   40.115986   64.366730   37.984642
H   72.635468   58.097954   18.225487
H   86.957932   22.370939   82.381027
H   10.364244   24.351898   40.788170
H   63.313316   40.958302   65.221962
H   98.425949   54.225864    5.898176
