100
TIME:    2.490, STEP:  2490
H   48.933502   93.675713   96.866348
H   32.006416   39.748711   35.068378
H   22.555655   53.044388   94.107887
H   81.894547   30.063013    3.677050
H   72.868347   72.341995   98.191391
H   89.406746   98.510490   25.338640
H   22.469929   29.474274   85.174095
H   24.177208    4.019307   79.570747
H   92.418983   46.890091   43.350666
H    6.796190   52.136070    5.193934
H   68.641296   66.433090   99.900452
H   60.806427   48.501419   15.688169
H   84.873253   11.059010   77.642815
H   31.790947   97.400978   46.730824
H   10.787575   47.610199   31.079794
H    1.406238   93.944489   26.350096
H   23.875153   46.664680    0.062073
H   54.354919   73.611885   13.220879
H   84.047386   82.812027   94.546234
H   25.434128   52.934994   85.863441
H   16.516495    8.329411   89.660492
H    1.099075   47.389496    7.231744
H   52.498940   74.371208   61.108597
H   87.693512   66.545349   22.144470
H   40.526604   88.694153   54.933380
H   35.241673   53.413494   55.783394
H   47.363678   38.970821   49.377720
H   22.443224   72.664497   49.078945
H   65.313400   75.004341   39.467979
H   96.471687   29.212753   81.336662
H   14.052823   45.337795   12.378815
H   22.977150   83.715752   68.752296
H   45.750187   86.302345   22.115820
H   83.309319   45.529068   66.851303
H   18.876961   70.695190   76.351463
H   89.049942   80.087456   12.080300
H   18.622746   13.346544    4.667630
H   61.072891   13.379986   98.154701
H   39.969711   27.162958    3.013069
H   28.663595   79.078133   33.941944
H   65.075676   41.620869    1.008069
H    7.834196   23.610077   19.783571
H   32.688663   78.431732   81.328392
H   20.355715   54.504372   24.193316
H   40.666477   33.648159   69.186989
H   45.963146   10.409718   93.280312
H   61.185047   60.252472   49.359703
H   56.372395   21.020212   22.644981
H   37.814438   26.227749   45.147621
H   78.107933   68.646461    9.511524
H   43.354649   29.250433   79.671005
H   26.141562   32.685444   10.597233
H   60.532181   36.446594   58.255524
H   19.031597   66.583870   41.692657
H   42.531815   76.792297   21.534376
H   96.681778    9.915079    7.861328
H   54.105846   17.699409   92.807076
H   40.646088   41.738083   49.419510
H   86.657997   43.977764   20.324213
H   94.705124   19.177282   92.789070
H   16.771608   62.773464   20.256229
H   10.538502    4.766481   82.690155
H   43.128124   37.354378   62.734543
H   14.022779   55.339478   59.540165
H   31.153793   61.972950   27.449701
H   48.380531   18.487617   93.413582
H   87.790840   34.448841   87.279007
H    8.364466   59.943054   85.238998
H   81.003838   70.870811    4.063085
H   80.830872   73.383858   96.489899
H   42.964333   25.980291   32.280773
H   68.654358   68.886810   38.927841
H   44.639343   95.141899   97.900871
H   75.393913   91.807175   55.220451
H   82.224022   32.187176   90.156479
H   84.523308   67.159660   28.384533
H   93.030670   10.729872   35.086857
H   48.965054   87.905785   51.954464
H   80.916779   46.204815   45.460526
H   77.411018   73.344421    6.405506
H   59.609539   55.041851   28.809792
H   28.150970   60.489151   78.565041
H   75.344070   48.818542   67.060089
H   21.459446   25.234102   35.995819
H   31.087696   93.132812    6.374885
H   93.981873    0.515386   14.696525
H   33.456200   22.309647   42.276184
H   96.039246    5.939083   69.851021
H    7.356677   55.532768    7.828500
H   46.189335    6.828491   13.229957
H   25.923706    7.885066   86.045975
H   62.525715   82.771782   80.967979
H   45.046848    2.243233   11.548214
H   87.895607   64.271202   94.706795
H   13.539936   26.690483   73.304497
H   99.585342   97.404549   38.837341
H   64.957840   10.576440   93.987144
H   16.007559   37.438538   16.194183
H   90.095726   47.583706   36.474571
H   93.878708   14.745615   57.863190
