100
TIME:    1.937, STEP:  1937
H   86.331207   44.388504   97.372635
H   47.389091    9.765451    0.185689
H   13.050123   13.259688    0.597079
H   81.801727   52.846092   33.989346
H   77.821518   28.016605   13.184982
H   97.979866   99.109596   70.574028
H   51.451313   92.132652   41.928780
H   67.641914   56.176197   30.345047
H    6.012840    0.058628   78.160378
H   21.906736   44.195808   83.540825
H   20.080002   44.181797   53.167286
H   81.910782   20.782228   55.051079
H   20.050163   44.516273   32.607140
H   59.172615   99.105476    4.645748
H    4.060600   97.006897   57.663986
H   23.642593   42.312187   72.253677
H   68.335556   10.093910   49.713066
H   42.537346    0.504158   32.394333
H   75.432076   59.614861   65.409439
H   40.331612   64.676865   48.212593
H   49.332306   63.383862    4.671215
H   48.080082   46.656555   54.323692
H   59.882286   78.868721   76.930054
H   39.073250   59.912998   63.216972
H   60.305534   32.552322   50.853554
H   37.777325   69.890411    7.617627
H   95.048912   61.960453   38.403957
H   69.102646   46.852322   30.798769
H   53.289093   24.831640   65.609245
H   75.266716   42.899368   37.374111
H   92.297829   95.745682   56.135494
H   88.060638   98.997169   19.946251
H    6.796766   26.761787   72.297211
H   59.944191   96.208359   90.148926
H   32.624657   12.497905   42.677635
H   40.969585   36.645405   13.980985
H   65.581604   33.599953   61.093327
H   83.931190   23.501499   59.128971
H   63.642105   39.158760   56.475548
H   80.749321   30.847525   90.433304
H    2.869652   22.646738   87.979416
H   57.534668   98.790092   93.803711
H   27.925352   75.115555   41.384766
H   55.668510   45.235107   70.122849
H   88.635078   55.464893   21.864580
H   53.097569   99.862099   91.035774
H   56.533009   30.231050   44.174751
H   56.342861   15.326597   88.428535
H   21.651236   72.026329   67.208450
H   66.513969   60.231777   48.187603
H   43.396839   82.638466   73.840271
H   99.268227   84.000168   46.902203
H   49.060570   33.240112   90.371727
H   31.836430   75.604210   17.290915
H   86.555496   28.312407   16.842787
H   95.989853   10.496254   26.686752
H   19.049715   33.655876   40.212334
H   81.824066   93.961548   63.663040
H   43.043434   20.611609   62.779984
H   31.196712   76.672623    8.517188
H   81.887924   88.492622   63.370754
H   30.163437    9.914783    7.710289
H    5.617697   75.064293    0.672303
H   76.050415   52.331291   74.552818
H    9.204158    6.138585   75.950790
H   82.352364   45.978981   60.715908
H   32.159927   15.330499   60.580822
H   46.564003   28.316772   58.802402
H   53.443352   10.605850   38.747574
H   69.625061   45.569054   97.654358
H   60.524040   63.607307   38.916172
H   14.252923   87.239700   98.439323
H   80.695389   22.494785   12.080425
H   87.561668   26.801996   88.086891
H   55.560928   31.399820   48.235943
H   71.452675   31.715769   65.592766
H   42.822136   58.661621   25.305643
H   22.984112   24.064581   21.412724
H   54.399651   47.827976   39.289192
H    4.531192    3.460301   54.046883
H   48.787663   49.320812   95.759071
H   86.658325   56.877640   24.806997
H   40.356815   39.587250   14.389441
H   83.418404   77.913185   86.506348
H   58.013779   27.723557   59.982010
H    6.708493   80.204796   76.294365
H   96.522560   62.517242   15.907084
H   87.137039   50.213608   75.605812
H   95.879829   86.323433   12.352402
H   95.081284   29.581856   93.461418
H    3.292584   78.023254   74.367630
H   21.605669   41.186382   70.428780
H    9.565929   85.671188   68.766708
H   34.446285   30.725611   57.419533
H   23.102425   76.225372   60.596703
H   53.909851   19.241278   67.400345
H    8.852672   78.841026   25.790817
H   13.977143   32.730072   25.043652
H   16.438831   45.199940   82.797287
H   59.535599   28.949158   11.124826
