100
TIME:    6.739, STEP:  6739
H   61.591141    4.022342   92.976273
H   14.361362   70.041710    3.020321
H   95.605850   58.734489   44.237240
H   82.607727   55.003876   70.776489
H   34.810440   12.917906   82.983749
H   23.514881   93.907234   46.132214
H   99.780029   16.386539   17.451731
H   90.214180   71.610321   89.441032
H   87.970390   38.366089   75.891563
H   90.693428   13.146671   71.576851
H   73.409668   37.400700   90.614937
H   98.630219   61.481861   13.239815
H   14.037186   54.068913   55.400566
H   21.405991   84.304390   70.081841
H   62.457893   68.072136   26.824299
H   30.563934   22.311562   73.645020
H   82.196754   27.703449   86.866096
H   45.177761   66.919327   65.915077
H   50.226276   61.064713   18.399227
H   10.958466   62.698994   75.155083
H   64.374908   85.328522   74.333260
H    8.454834   53.030106   45.390167
H   95.766838   39.814369   39.540527
H   92.907570   17.446260    6.576236
H   88.559517   51.724342   86.308937
H   15.826159   27.437538   56.711037
H   80.967796   62.346878   33.680103
H   63.923424   70.993446   89.527969
H   57.704018   60.506725   38.615295
H   59.396152   24.049828   19.119690
H   81.278099   26.355061   76.210777
H   91.261932   66.317154   75.401085
H   45.043484   75.425179    4.899296
H   62.840660   56.133560   87.848495
H   13.241045   49.433174   35.057678
H   58.447308   13.255977   98.239113
H   26.157124   57.738892   39.472080
H   85.457115   35.626286   97.994926
H   60.618984   34.583916   91.253448
H   28.455296   81.300949   68.246017
H   74.688843   87.414848    1.113550
H   32.287857   68.030136   23.998352
H   69.283112    3.913207   88.239250
H   49.034901   25.756552   39.639343
H   72.096657   66.003311   32.785099
H   91.136955   91.452957   10.539156
H   94.383102   91.327225   90.152290
H   56.599316   64.779495   85.549072
H   62.014748   74.325417   75.653793
H   67.225830   33.305325   12.340665
H   43.038860   19.036612   24.465755
H   32.641529   38.410492   31.662971
H   48.660366   61.083740   11.477594
H   20.633240   97.247620   29.189041
H    4.225330   49.179108   57.668468
H    1.989176    5.444949   63.215332
H   23.475595   95.095207   96.922325
H   24.255678   40.472404   39.975082
H   21.767944   23.510792   94.130608
H   14.315083   45.770664   71.937401
H   84.801659   65.175064   88.970688
H   59.737648   65.216415   90.435074
H   31.570776   47.426064   71.356995
H    5.794269   78.473282   44.177120
H   99.804214   22.611134   23.142920
H   87.360138    7.257561   44.646118
H   46.886185   81.346252   92.420486
H   14.857107    2.947352   88.365768
H   92.772224   65.564774   37.574635
H   66.913048   87.094170   87.542725
H    8.038256   36.880005   81.310951
H   18.306040   27.870865   50.020462
H   67.595764   84.968063   88.959778
H   81.856606   22.908482    2.745622
H   87.085197   38.249210   12.259811
H   84.971703   39.479527   42.480011
H   78.827728   42.523518   10.258711
H   48.590801   10.073149   86.609306
H   84.672585   33.724155   92.867287
H   69.038162   41.914803   40.350243
H   42.744675   98.999710   82.763565
H   46.985626   88.174194   23.220047
H   44.132561   19.817907   71.732300
H   13.782502   88.829735   47.913052
H   24.195959   27.356636   94.482002
H   96.190414   56.590637    9.759870
H   17.237368   13.372527   44.884941
H   64.410667   65.813416   25.704903
H   95.535507   18.955584   73.074471
H   70.521347   32.015354   65.117538
H   99.810265   37.318459   75.777145
H   76.916656    2.316937   61.927292
H   17.436207   29.722752   40.141792
H   98.565590   22.020105   81.199448
H   40.079765   46.091568   70.941406
H   50.535370   29.615313   19.371063
H   27.691973   54.417038   49.623428
H   25.269495   19.905384   43.595734
H   87.682762   65.902840   80.575508
H   57.795078    5.701784   48.551731
