100
TIME:    0.346, STEP:   346
H   93.924232   90.291420   98.829239
H   91.645576   23.504295   99.826141
H   85.709198   98.796867   19.277260
H   81.534683   18.394972   21.197477
H   92.071960    0.490950   56.323601
H   22.651001    0.837072   13.010778
H   34.836880   84.701225   17.510424
H   92.691376   18.535793   76.425941
H   45.122658   53.026932   78.308205
H   65.384956   21.354233   21.238398
H   68.070953   80.164658    6.421356
H   42.635372   41.033760   68.300407
H   21.253666   40.774002   90.739433
H   37.950001    4.010469   83.570839
H   84.710945   39.116798   34.140194
H   87.611786   81.473885    4.318787
H   96.248680    4.878570    4.857572
H    8.538447   77.874603   87.551071
H   50.652069   92.867462   81.591034
H   83.283485   98.277405   39.792839
H   43.744415   21.771782   47.851227
H   95.524452   44.556618   89.794197
H   81.124428   91.808220   22.450859
H   86.894363   40.831486   81.378159
H   17.208559   58.734119   39.113480
H   45.072483   17.299824   56.742256
H   32.242451   28.093822    6.832123
H    3.347016   72.589294   78.211990
H   18.694748   80.483940   40.816132
H   14.260966   82.276230   10.894806
H   29.712404   53.070045   82.032402
H   87.604095   42.951302   67.233131
H   94.729187   43.166878   28.967367
H   92.721199   42.013794   57.174675
H   72.171455   32.765335   45.796806
H    2.638093   11.665712   19.453794
H   12.985257   91.864113   35.728649
H   49.688416   52.621441   46.856991
H   35.165226   73.121910    8.963748
H   30.604431   79.792183   65.257805
H   11.597019   68.051094   50.491764
H    0.524656   27.385996   19.055655
H   14.221530   65.574799   26.465382
H   57.264847   18.570173   14.561966
H   26.642868   18.240376   85.715393
H   73.532463   69.708549   84.675133
H   39.733509   44.406178   30.579779
H   56.257893   98.945328   89.986481
H   75.142448    3.794276   30.671484
H   33.146511   36.015736   59.464012
H   43.518223   36.239861   57.065052
H   21.947618   31.632393   51.348579
H   16.056353   24.014954   82.775307
H   68.674835    1.556597   47.084064
H   13.213972   88.837006    3.342114
H   93.999161   12.168314   80.848145
H   18.187218   79.563179   88.894844
H    0.295114   44.211357    4.642519
H   17.565628   53.388153   84.921127
H   36.185974   54.383415   53.768517
H   81.526443   62.478508   87.418915
H   86.630920   24.724838   79.699951
H   97.701332   83.558693    9.821086
H   66.799690   43.676636   17.746115
H   46.055901   33.209446   27.783163
H   80.090096   25.072437   66.644081
H   59.808495   60.322559   83.766830
H   56.465218   37.325790   82.743401
H   74.147850   24.924965   38.532253
H   37.395576   65.547997    1.003179
H   11.045027   71.862694   57.997684
H   45.437473   40.042519   81.954475
H   84.431656    1.193363   52.877476
H   22.575226   27.483805   82.644798
H   78.853195   29.136015   27.627392
H   33.838284   29.747549   72.647354
H   98.369141   96.555290   97.155701
H   48.236038   28.096310   33.548512
H   78.137932   52.488308   21.546478
H   82.556992   90.110451   91.113037
H   17.652752   32.861187    0.668646
H   67.284737   46.487198   57.848007
H   39.688351   13.032500   62.854645
H   73.972137   41.769260   31.826881
H   35.482834   27.241180   14.211534
H   43.329891   21.762993   65.810539
H   90.263268   78.195900   40.041775
H   61.525085   77.592476   92.142433
H   62.863472   74.907555   25.369949
H   35.744911   95.049820   36.581036
H   38.182316   92.114807   40.768627
H    3.887193   21.528509   40.116707
H    7.484268   37.998306   45.682487
H   80.670204   34.219818   50.147007
H   50.609928   18.736691   24.037266
H   22.499802   82.068230   49.577644
H   35.138145   87.536736   17.290260
H    8.135554   19.183655   50.499466
H   92.229546   38.341763   16.069431
H   60.729259   69.816856   64.361313
