100
TIME:    7.038, STEP:  7038
H   41.370682   76.602577   92.702530
H    6.104533   86.242714   21.873276
H    0.747358   80.246101   40.726490
H   82.657913   42.685455   54.387089
H   32.132324   36.884075   74.876404
H   18.877224   93.583305   75.743423
H   84.108261   36.577343   40.833920
H   66.713371   97.479004   61.989037
H   80.620399    9.618419   57.070911
H   82.526772   17.440248   83.283913
H   45.597412   49.431690   61.812820
H   87.219711   76.469269   91.956947
H   94.959724   35.983463   25.689709
H    6.601852   83.382790   92.834419
H   66.089546   41.363976   12.445965
H   18.540928   96.159668   48.825684
H   58.153023   47.479076   14.085259
H   51.571934   52.369904   55.551216
H   54.882183   73.607224   34.150837
H    2.903587   56.350445   95.512413
H   46.631821   55.562920   66.216789
H   37.120255   53.427032   19.927536
H   91.774757   37.382622   30.985933
H   65.127251   21.023165   84.370712
H   77.865303   28.011383   88.517128
H   14.422512   18.620789   28.575449
H   55.185017   49.916679   39.613476
H   38.695755   84.949760   99.410080
H   64.205406   87.634621   24.481657
H   70.861404   16.649651   42.889061
H   93.044472   53.166115   52.554848
H   10.140860   58.056332   47.721138
H   66.105476   53.548576   31.835577
H   75.473885   28.731918   75.251770
H    5.799321   26.794655   53.250160
H   84.439171   36.675507   97.299263
H   54.834183   46.789185   63.032200
H   73.097633   30.153713   19.093971
H   47.997166   28.069529   62.277786
H    0.292895   53.309887   91.769638
H   54.253952   97.675636    8.157341
H    7.089642   69.202667   39.262386
H   71.856293    5.706799    9.836769
H   29.943630   30.775167   68.873161
H   46.161110   54.206898   58.370918
H   87.277184   97.155930   11.753889
H   96.719040    7.587964   93.022026
H   56.617184   67.859100    4.049421
H   70.755745   49.562160   63.727684
H   73.503662   37.856297   91.434944
H   43.018330   90.169754   27.617218
H   47.174984   10.664391   12.035737
H   54.862919   62.817444   94.112404
H   13.709831   92.370438   42.383194
H   80.418686   75.382133   60.211994
H    2.361580    5.130430   53.036667
H   42.429996   86.467751   25.359932
H    1.992055   12.235048   32.273788
H   45.348595   36.146297   71.177284
H   94.584038   68.753174   63.433128
H    3.662642   51.271027   65.656937
H   49.125557   62.433365   76.907623
H   51.871052   27.022831   50.853668
H   26.326141   80.102051   36.058369
H   11.672271   98.730469   50.987476
H   68.992004   92.393608   62.325333
H   22.896769   91.684601    6.856295
H   94.202812   20.048208    2.659698
H    7.673942   44.080536   18.820980
H   72.971886    2.131975   86.913116
H   98.543266   16.536362   77.724922
H   93.693703   17.924824   71.931099
H   48.100723   70.181396   81.294983
H   75.273094    3.984939   84.979858
H    1.499757   38.678257   34.927494
H   92.038826   58.643795   22.361658
H    5.983187   16.643429   15.561335
H   62.638363   90.522682    3.120899
H   99.012138   32.845898   96.202385
H   54.374680   25.626667   14.591088
H   48.595924    2.093484    0.634378
H   69.421669   90.113205   98.205666
H   63.045898   24.818274    0.206112
H   34.352993   14.415876   20.604939
H    9.637312    8.652944   65.497215
H   89.310349   67.573822   30.523422
H   37.206898   91.632530   59.142372
H   69.219414   41.886196   22.604767
H    1.740580    2.308152   70.629036
H   44.085209   19.712902   75.807190
H   12.046711   53.462433   82.091476
H   99.039627   24.804031   67.624870
H   36.602757   38.694668   63.263924
H   27.462368   40.160118    1.360575
H   34.910591   19.308128   77.812347
H   75.231522   17.809019    3.926968
H    3.959333   71.576141   32.427826
H   24.692354   34.699825   37.593925
H   73.439018   67.193993   55.531841
H   76.367760   98.028915   19.747158
