100
TIME:    2.442, STEP:  2442
H   52.179596   98.077568   96.910294
H   33.341621   37.146049   32.040546
H   21.730581   49.591019   94.671120
H   81.886490   32.040733    6.308141
H   73.298279   68.494583   99.492905
H   90.150887   98.562492   20.585039
H   24.985615   26.232941   81.420433
H   27.949913   99.866760   83.977730
H   93.598915   51.505081   46.372272
H    8.107775   51.446861    3.314211
H   73.106140   64.501694    4.524038
H   62.638580   46.095413   19.104734
H   87.926720   13.963154   82.413811
H   34.167656   97.548927   43.077869
H   10.203651   51.897797   33.387215
H    3.336326   98.142731   30.334654
H   27.734283   43.490364   95.691711
H   53.329163   75.946114   14.885124
H   83.299583   80.798599   92.017181
H   26.727219   53.954159   82.595375
H   19.364883   13.108097   90.963470
H   96.497269   47.325775   11.319382
H   53.139809   74.761589   62.481888
H   92.153229   65.969666   25.709534
H   42.243401   92.501282   54.579254
H   35.461765   54.843548   60.282295
H   51.502960   40.966305   48.425205
H   26.493334   70.424019   47.492153
H   64.269699   70.649361   41.737022
H   94.631111   30.400742   77.520744
H   12.164456   41.033352   16.176884
H   19.946388   85.042168   73.195900
H   42.368961   89.814308   17.791601
H   81.281242   49.927994   68.873520
H   20.070259   74.323608   73.428368
H   84.876602   76.316948   12.245278
H   14.018926   15.104540    0.885480
H   63.056656   14.258526   94.767250
H   41.995956   28.208673    7.664538
H   33.184605   83.571541   30.165300
H   68.356194   39.974018   99.876999
H   12.148163   21.455658   17.528627
H   32.275211   78.143890   77.861107
H   23.420717   53.699806   19.500139
H   44.829929   35.541836   65.079567
H   46.582409    9.494190   93.085487
H   60.809681   57.642120   48.898643
H   56.369831   20.526011   19.675011
H   36.411484   30.202969   47.062538
H   77.101585   67.916237   12.868580
H   43.358311   33.884575   79.164902
H   23.808981   37.139668   13.748478
H   59.536453   36.168274   61.043488
H   20.143047   67.366829   39.574493
H   46.353226   72.584534   21.127150
H   96.621719    9.965525    9.495361
H   51.063000   19.084419   88.241890
H   44.220306   46.271042   50.655838
H   82.872108   41.949688   24.009211
H   97.872849   15.487707   94.154305
H   13.743662   65.005684   23.998539
H   12.241932    5.213350   84.861786
H   39.872143   40.627571   66.027512
H   10.726698   55.078369   60.843510
H   29.248581   65.806641   22.979548
H   51.329262   20.873848   90.575447
H   91.641914   32.789539   84.961624
H   11.680231   57.197937   82.944321
H   78.611748   74.319786    7.073613
H   79.858215   70.969795   96.590973
H   44.488503   29.246344   32.856823
H   72.612366   70.479828   35.413315
H   47.768982   97.516411   99.131340
H   76.450066   94.844528   58.073235
H   79.909569   32.118694   86.517807
H   83.388786   64.083488   31.614330
H   88.672760   14.890211   34.237980
H   46.709927   91.044212   49.303463
H   78.614777   46.345806   44.924759
H   79.765022   75.958435   10.540687
H   58.670208   54.545269   25.941078
H   24.549286   60.175674   82.578712
H   72.307449   48.017273   62.488316
H   18.157322   21.126680   40.380096
H   33.424927   96.135010   11.027869
H   95.086365   98.752388   11.363181
H   30.250387   25.799637   39.987366
H   95.266541    9.782009   70.350533
H    6.360446   58.205376    8.221189
H   50.433353    8.803467   11.514167
H   23.959351    5.293254   85.032303
H   58.973835   79.162407   80.053185
H   41.967014    0.805018    7.834743
H   83.256447   61.359493   91.470222
H   14.369953   30.990166   72.201469
H   95.620743   99.300056   41.316589
H   68.767899    7.821893   96.747643
H   15.831325   37.029846   16.962311
H   92.382347   47.376797   40.495201
H   90.897751   15.978556   62.486237
