200
TIME:    0.780, STEP:   780
H   26.064146   60.682850   24.573242
H   32.777161   40.761543   11.819388
H    6.819762   92.773865   71.946098
H   36.044907   83.285408   30.378830
H    9.476825   97.415466   45.894600
H   72.051453   38.158546   49.566185
H   11.182860   54.920982   60.103481
H   14.989724   12.203811    5.904864
H    9.358027   79.410675   34.546124
H   91.852188   67.334587   74.772713
H   31.015421    6.129521   10.026176
H   33.010773   56.436218   38.472237
H   24.427807    4.929825   39.159721
H   78.880714   55.485226   68.286919
H   93.550797   76.101540   41.649933
H   13.560493    3.716993   42.674065
H    9.609788   33.009327   89.213783
H   23.739738    9.126897   33.906643
H   82.992188   10.152243   50.433128
H   91.774239   72.288902   16.537647
H   64.565636    3.714475    1.100931
H   78.007240   69.454933   49.765213
H   78.834709   58.615219   36.179207
H   20.046028   92.982430   89.892815
H   26.717606   34.421959   26.141705
H   18.214087   86.301437   89.121620
H    9.353217   69.632027   70.793594
H    6.903466   92.405586    2.152164
H   33.812351   40.116158   35.176361
H   68.647415   35.230480   79.946396
H   12.656479   74.009682   16.855022
H   22.106335   76.162582    6.898319
H   14.075661   20.604921   79.775070
H   78.554543   64.167061   47.728928
H   22.074041   67.487778   30.111101
H   15.422003   37.609711   85.668648
H    1.763361   62.773880   90.008888
H    6.204532   58.723743   90.888367
H   33.084747   27.064255   56.434883
H   84.904068   37.467876   42.602631
H   80.664986   79.998001   19.448112
H   40.217361   31.783396   23.818726
H   66.978958   75.376991   70.379707
H   36.078262   89.461006   38.060947
H   47.227676   92.770523   63.850914
H   33.460686   99.785072   48.560757
H   90.150238   99.756165    8.018294
H   76.969307   65.542366   28.234818
H    7.964102    8.260109   61.555660
H   42.793133   20.238409   82.867401
H   65.362473   63.661247    6.468263
H    0.495876   44.992413   75.151527
H   66.741661   78.979485   14.984911
H   14.369646   93.579269   89.699837
H   54.341843   64.375504   73.309212
H   98.383476   59.046219   96.330719
H    3.889403   18.788918   43.862049
H   73.308334   71.132645   95.556511
H   16.786623   84.908981   20.186832
H   30.613895   92.956947   57.011780
H   48.670631    4.840860   26.459087
H   99.641960   17.704103   53.206001
H   86.324173   36.392548   66.666840
H   37.210136   65.922752   15.724220
H   80.028946   84.129303   40.011463
H   17.556669   37.540276   42.569717
H   66.004250   11.771377   96.991737
H   94.317436   92.677650   97.962624
H   35.730164   13.150573   55.144936
H   42.128521   51.041836   50.953754
H   58.228271   85.931885   87.725616
H   16.963917    9.628072   40.984844
H   94.632462   34.998730   81.413635
H   25.458014   97.095177   76.293617
H   85.720352    9.612922   42.221939
H   66.962898    0.012216   59.348801
H   93.145172   50.053116   64.507332
H    6.554512   15.803045   29.502266
H   15.637400   53.749901   22.973509
H   60.138363   87.655319   68.652496
H   66.286949   20.975500   93.116608
H   50.381115   58.878620   71.163506
H    8.892913   19.589647   74.480003
H    7.064713   79.517372   11.451200
H   19.678711    5.034139   42.478928
H   39.880341   66.880585   16.541748
H   60.057411    3.909349    3.009334
H   70.840828   98.446259   31.809811
H   82.214310   73.371536   79.115479
H   20.739433   10.252062   48.924648
H   18.606789   39.554432   78.352600
H   80.293983   93.273315   10.150517
H   72.912796   10.771896   80.350342
H   35.813313   75.033165   83.932091
H   38.807518   49.621666   90.430168
H   46.909401   39.782585    3.672115
H   86.630730   95.601158   21.585625
H   92.050270   36.829269   53.706333
H   24.781883   64.368637   54.794930
H   76.593620    6.701720   27.382242
H   33.959133   95.356812   94.367653
H   10.651753   84.826279   62.885933
H   34.373093   17.434999   38.048595
H   47.823265   68.936493   11.606883
H   24.622911   20.376251   42.594936
H    8.801638    0.334623   18.608622
H   91.238617   36.801876   53.746109
H   61.569080   55.007637   97.860847
H   86.519859   33.273323   25.244343
H   21.713457   20.531321    8.180162
H   54.299263   91.374245    1.175780
H    7.676326   76.924500   96.662132
H   47.715149   86.540985   82.189613
H   61.394951    7.755621   61.029251
H   45.829933    4.454711    7.838531
H   92.000984   90.000984    3.295288
H   10.372813   16.046453   90.475266
H   38.031399   53.575840   23.184441
H   39.369667   77.987503   56.851673
H   85.033272   57.452450   69.487442
H   46.190559   25.347843   69.824974
H   94.989685   14.687824   64.072327
H   45.255196   99.047562   40.048763
H   96.121521   47.887093   94.217644
H   60.758232   95.582298   74.953484
H   67.505974   77.126526   15.104972
H   81.964088   51.711288   50.199966
H   63.616997   91.805199   39.563274
H   99.113075   32.936932   72.584206
H   93.918747   21.589874   75.701286
H   70.407204   65.904694   24.047787
H   60.972923   91.407211   22.061512
H   90.674446    8.866816    1.392489
H   74.442139   26.847973   56.353039
H   31.102451   91.606049   31.602890
H   47.975601    0.933810   75.726128
H   69.786728   87.940559   82.220833
H   95.824364   47.360371   74.666115
H   60.427917   51.885361   71.422371
H   43.740456   83.191856   80.452911
H   77.351517   47.188614   32.353455
H   32.378983   57.418221   58.835163
H   37.646416   66.699623   81.170288
H   32.969124    6.980572   87.072792
H   65.684479   51.857986   66.726318
H   65.726006   71.278854    3.983625
H   57.502861   94.412987   43.415394
H   27.907417   53.317833   65.726830
H   79.621307   42.246346   92.576263
H   26.675644   94.570335   69.788956
H   57.187149   70.480789   47.267582
H   56.518768   92.167503   31.229950
H    1.261677   11.647091   84.508713
H   24.184441   13.537756   62.608036
H   35.025578   68.140579   70.522118
H   79.532524   44.867863   70.675171
H   64.963730   77.078415   87.149826
H   53.723450   27.995804   22.375233
H   87.666862   99.699570   82.578407
H   57.625523   34.910736   98.964035
H   59.260284   62.471062   69.058128
H   18.249849   20.257877   30.865860
H   88.463676   11.026012   37.007519
H   31.096296   36.043232   48.095963
H   53.783745   40.411499   15.130426
H   21.217400   47.257366   59.349934
H   65.601280   88.832832   57.946262
H   24.103939   55.501427   70.342422
H    1.410744   26.414114   35.581833
H   51.115974    6.384645   84.322418
H   69.048828   12.055671   35.930756
H   27.507906   45.389656   59.116364
H   48.106522   54.250248   75.229935
H   64.576462   61.622231   86.767807
H   46.339600   90.974350   73.840645
H   17.578117   50.579491   23.809769
H   29.870335   69.790680    9.496384
H    6.515946    9.715843   71.785110
H   61.791424    8.826016   62.819462
H   60.613396   60.247643   94.002647
H   71.558960    4.540734   29.164219
H   30.119581   30.765224   89.329758
H   40.771114   89.597290   16.765427
H   63.240814   26.219555   97.056313
H   92.506149   64.912903   76.172104
H   10.565060   40.780350   86.656837
H   50.155090   95.275124   11.230268
H   64.478210   90.098091   44.421989
H   90.979774   63.581470   72.714981
H   59.433289   55.335842   72.525528
H   73.616089   13.158516   75.445259
H   43.226112   99.604187   17.746260
H   16.095055   30.370819   70.177162
H   25.669748   85.082184   44.195927
H   66.363419   30.135620   20.049889
H   76.646500   11.708500   22.168110
H   13.050719    0.283863   21.693098
H   13.215773   86.673912   31.737602
H    4.712287   13.122858   53.866371
H    2.375575   16.697582   90.246506
