100
TIME:    9.417, STEP:  9417
H   80.488922   58.437782   90.524490
H   40.401047   15.156673   71.877983
H   41.640453   51.400368   12.798853
H   83.057220   44.670708   23.984316
H   10.814817   27.571060   10.372780
H   81.988403   91.005959   11.342586
H   59.423588   97.218056   26.874844
H   79.728668    3.292809   43.556458
H   22.140038   80.885742    7.320239
H   17.546572   51.599171   76.434364
H   24.308624   45.154404   32.654152
H   96.418968   95.716331   22.616493
H   43.258881   91.990364   89.272064
H   88.808350   76.050056   73.878593
H   94.984871   28.859962   98.038109
H   22.886204   88.083603   51.347717
H   66.847878    4.833044   30.655012
H    2.443850   36.607582   73.085526
H   91.940689   73.409195   59.484188
H   38.804577    5.833376   57.485741
H    5.458241   18.725401    1.650234
H   65.197311   56.585190   17.333710
H   60.011681   18.040922   62.919128
H   44.082973   49.482880    7.685408
H   92.779160   39.345619    6.083698
H    3.203485   48.490341    4.699923
H   50.041008   51.024487   86.813705
H   37.962593   95.993439   78.049309
H   15.934974    3.476194   12.025654
H   62.082527   57.768753   32.012581
H   86.673912   66.495453   64.336029
H   60.352436   92.331039   27.485191
H   33.678154   79.490067   46.154686
H   75.992584   10.710804   75.028404
H   46.592705   46.670937   97.989853
H   91.241486   23.012632   89.821327
H   83.011597   59.664314   50.488056
H   74.768715   86.618217   86.972862
H   47.578472   76.237083   31.734753
H   76.216766   30.595016   78.945145
H   91.666656   79.301773   64.204918
H    6.600388   78.531937   60.713894
H   92.329865   19.978760   81.672203
H   78.042030   70.713356    1.478720
H   39.800880   60.358463   61.952168
H   56.571220   42.525677   21.418940
H   15.315448   36.968189   15.864561
H   56.762386   92.362045   51.247761
H   40.297539   52.533566   68.827911
H   23.446295   74.071251   25.095886
H   43.716862   60.558846   51.375793
H   62.795315   89.911316   55.868690
H    4.199963   76.611694   55.949043
H   58.611732   53.560150   47.361946
H   90.998970   83.865860   80.434860
H    5.324621    2.627954   72.049881
H   93.249390   17.823204   51.622551
H   24.846498   87.567406   70.994652
H   32.977779   36.671761   88.542305
H   37.593685   51.610905   95.768715
H   53.734997   40.636890   80.176582
H   64.690178   40.289963   69.267433
H   13.380374   64.683861   87.718506
H   89.688416   93.061386   71.470215
H    6.099009    8.722378   72.532768
H   22.848080   74.126671    2.990976
H   32.025436   73.930634   21.715141
H   29.869293   56.105904   16.389664
H   26.243731   73.140778   69.616119
H   21.279358   21.636431   81.870316
H   22.992825   54.666210   49.192604
H   97.800591   38.919334   46.307659
H   92.985977   52.505886   20.296741
H   22.905491   53.417271   43.627022
H   16.097261   42.181271   15.304726
H   48.283081   11.113719   62.283386
H   22.047379   10.734440   57.757317
H   74.399818   34.973549   34.515877
H   13.093770   25.858021   22.751024
H   37.706352   96.030128    9.638256
H   95.168999   26.705545   42.824684
H   47.939583    5.546687   99.178062
H   13.519243   64.603798   26.770443
H   98.024055   17.992249    3.320611
H   93.801910   59.828926   34.881027
H   34.559193   54.957603   95.728134
H   96.094978   18.659554   72.582054
H    7.479774   51.518776   97.939926
H   51.114750   69.848824   51.171883
H   33.749355   21.834846   60.849411
H    9.405476   81.920471   32.331932
H   75.061539    3.728194   12.959512
H   89.101456   10.070707   47.235649
H   56.518959   84.425217   63.094997
H   93.775299    6.211418   32.477150
H   71.727173   23.864801   81.048508
H   15.125356    8.101056   95.607452
H   20.100321   52.412601   89.830467
H   60.108849   77.467079   56.265965
H   24.137878   36.979244   90.570236
