100
TIME:    3.207, STEP:  3207
H    0.446421   27.922997   96.209915
H   12.061520   78.623901   80.296616
H   34.880188    4.628867   85.694603
H   82.014893    0.520795   64.378235
H   66.446243   29.812695   78.750031
H   78.291145   97.733711   96.345543
H   84.891212   77.890114   41.244514
H   67.822418   66.047165   13.737318
H   74.793755   77.953369   98.217094
H   87.202614   62.431129   33.272789
H    1.947703   95.283325   30.835329
H   33.438637   84.441132   64.651253
H   39.265060   67.679398    6.379671
H   96.289467   95.190987    1.293201
H   19.509930   83.565323   96.614082
H   72.577774   31.233246   66.832375
H   66.219276   94.089401   65.334213
H   69.675133   38.744347   88.362488
H   95.217690   12.889773   32.319393
H    6.118584   37.711216   34.680077
H   73.968796   36.950592   70.197250
H   69.838562   48.341324   46.172592
H   42.925957   68.539894   40.595062
H   21.076492   75.144623   68.894859
H   14.883718   31.828262   60.224220
H   31.953997   32.052067   88.579094
H   85.535828    9.165071   63.605907
H   61.943539    6.131607   72.779625
H   80.903687   40.055832    5.576235
H   23.963661   11.466828   38.335480
H   42.271107    9.633807   55.651314
H   68.249153   63.902443    2.376019
H   96.253754   33.842400   86.708839
H   13.604329   79.820381   36.644440
H    1.052995   16.495697   20.012711
H   51.390591   36.411472    9.615941
H   87.391975   87.087875   61.164364
H   31.440407    0.257175   48.749813
H    9.702960   11.542585   33.529724
H   61.128986   11.954341   90.354347
H   16.076113   66.221191   17.901228
H   43.394279   55.791710   53.468536
H   38.864605   82.731369   33.118885
H   74.570602   66.521423   94.297569
H   78.471611    5.360847   30.542959
H   36.712910   24.085407   96.190498
H   66.789352   99.244598   56.246780
H   56.410686   28.402349   67.008919
H   58.771065   66.844780   16.545027
H   93.140251   79.554192   59.361500
H   43.299946   60.028427   87.230927
H   60.986759   66.154495   63.529781
H   75.401665   40.604004   16.611324
H    2.429310   54.884155   73.332733
H   85.446884   39.637558   27.624502
H   97.578903    9.161322   83.452957
H   99.562645   97.009834   60.999840
H   87.256584   74.025955   30.951702
H   43.205559   74.272156   65.281288
H   47.389160   74.289291   72.395882
H   62.000771   29.432133   64.351608
H   85.091911   98.091782   50.249100
H   91.783485   88.442924   13.556870
H   63.259735   59.239784   40.071453
H   59.615559    4.705706   94.222694
H    4.334175   82.843422   35.806671
H   30.265335   59.234661   21.896521
H   58.836357    0.948296   19.515745
H   16.737747   19.351753   59.096424
H   95.359924    9.444845   94.980103
H   20.195625   77.195335   23.678677
H    9.535769   45.091110   91.423218
H   97.888580   59.673298   79.520744
H   59.616116   46.434586   12.607002
H   16.794363   33.210117   44.510654
H    1.470612   13.110872   80.138672
H   58.130558   48.585693   47.766956
H   82.651016   41.022839   91.549988
H   15.300988   44.098759   53.463539
H   42.248085   34.293430   44.635239
H   73.637039   62.459545   71.663727
H   81.949310   65.171707   18.610205
H   20.705633   60.787506   35.350712
H   70.785675   86.588715   70.506195
H   96.174469   48.285572   36.869667
H   77.483521   26.852066   64.487015
H   81.342995   70.177895   76.465408
H    7.579733   48.534134   62.390747
H   22.237816   15.611805    1.962314
H   82.796844   77.331497   38.860054
H   55.266266   46.599911    1.187720
H   15.577799   36.690155   94.632729
H   91.029617   23.742620   67.006676
H   57.197315    7.760471   43.049927
H    1.141922   62.467121   89.780968
H   58.806641   69.090401    1.803049
H    8.046050   51.723675   52.752205
H   18.638762   43.543365    4.721624
H   55.939323   50.674412   76.417366
H   38.409695   96.338051   88.799103
