100
TIME:    5.842, STEP:  5842
H   22.251688   86.281059   93.797501
H   39.132637   21.432707   46.462757
H   80.180450   94.201324   54.769489
H   82.457169   91.959137   19.942589
H   42.844788   41.019485    7.305216
H   37.427853   94.879021   57.299862
H   46.790417   55.818539   47.305088
H   60.716614   94.009628   71.801506
H   10.020424   24.609024   32.353455
H   15.195505    0.265852   36.455662
H   56.846420    1.308295   77.017998
H   32.868279   16.519627   77.089287
H   71.276779    8.312813   44.531181
H   65.819923   87.069191    1.817881
H   51.558754   48.196304   69.954193
H   66.629669    0.766226   48.104218
H   54.328255   68.372475    5.208654
H   25.995245   10.566750   97.012245
H   36.258556   23.431940   71.140106
H   35.123100   81.751015   14.083094
H   17.604149   74.628235   98.682671
H   22.458572   51.839325   21.777985
H    7.743750   47.109612   65.203903
H   76.252495    6.715548   73.196335
H   20.640770   22.859764   79.684364
H   19.915190   53.956360   41.062134
H   58.317551   99.630936   15.879999
H   39.610767   29.124504   59.880684
H   38.199852   79.124054   81.018036
H   25.001083   46.250359   47.810562
H   45.975487   45.918705   47.178490
H   34.624577   91.104553   58.440849
H   81.860100   41.053413   24.090452
H   24.940350   38.338219   25.636496
H   35.555832   17.309118   80.464966
H   80.472839   42.999519    1.059187
H   40.122818   90.588013   68.792091
H   22.532627   52.044003   34.695103
H   98.478210   54.129143   78.179237
H   12.942690   65.275749   97.670494
H   35.991837   56.634125   79.980690
H    7.882060   64.512543   78.203117
H   61.561405   98.532684   23.448189
H    6.313132   10.700705   51.935226
H   49.905025    1.398026   56.026226
H    2.715330   74.344040    6.894957
H   87.375290   42.546280   81.543083
H   56.551411   55.540680   30.047750
H   35.797043   48.614761   11.433558
H   48.402142   19.650328   75.066330
H   43.100452    5.635806   15.011189
H   89.043251   21.645168   90.545021
H   30.052708   55.882629   63.576321
H   41.403465   11.883348   89.608360
H   75.646080   70.570663   50.037891
H    0.871951    6.388506   93.751328
H   66.607903   20.978569   11.610332
H   91.048492   25.183020   63.078964
H   51.022133   85.607597   62.990898
H   73.506241   76.824112   97.450218
H   28.218815    6.892597   58.906559
H   91.573921   73.565567   31.022118
H   70.674858    8.635176   32.866974
H   44.199570   73.586975   68.532104
H   64.203979   94.253098   39.609394
H   42.462578   51.849907   91.607964
H   18.853958   50.334225   49.114395
H   76.818794   51.647800   45.483982
H   48.067608   30.017464   93.831970
H   48.742279   41.978035   89.431549
H   36.523582   97.910934   92.069038
H   92.267715   57.640381   84.346024
H   26.082325   29.337051   11.957649
H    1.606618   79.678307   56.041527
H   43.837048   36.969463   44.261612
H   63.770256   81.990654    2.837610
H   97.370354   20.199980   94.366768
H    6.448115   68.727531   37.071846
H   41.657475   36.358929   82.861992
H   13.027975   90.777870   17.627514
H   25.190928   89.719833   29.151247
H   79.669907   82.357025   98.257256
H   87.394188    4.817903   86.306076
H   52.069305   12.071487   29.840656
H   67.872215   83.464668   81.436066
H   16.835865   23.639732   47.469482
H   57.328697   78.591789    2.112547
H   49.984428   37.590801   35.005310
H   76.921005   68.899040   80.410774
H   49.827847   68.921799   33.055191
H   63.101372   88.882812   56.834148
H   10.547739   34.853134   44.838905
H   59.936920    2.807023   70.775406
H   11.874689   67.600533   20.716005
H   55.587288   26.438747   50.328587
H   76.446823   65.037384   65.702011
H   98.892235    2.941226    1.210279
H   27.000917   75.519669   61.601158
H   30.413513   62.032864   55.709244
H    2.081186   28.720036   34.962345
