100
TIME:    2.607, STEP:  2607
H   41.021149   82.946190   96.759232
H   28.751854   46.092697   42.448719
H   24.566771   61.461975   92.735008
H   81.914185   25.242315   97.263977
H   71.820389   81.720062   95.018951
H   87.592903   98.383736   36.925732
H   16.337944   37.375023   94.323647
H   14.981239   14.141121   68.828728
H   89.542900   35.641052   35.985500
H    3.599203   53.816017    9.775783
H   57.758240   71.140869   88.629990
H   56.340553   54.366058    7.360284
H   77.430428    3.980158   66.013512
H   25.997719   97.040352   55.634899
H   12.210888   37.159180   25.455721
H   96.701920   83.711273   16.637735
H   14.467832   54.402397   10.713845
H   56.855202   67.922203    9.164280
H   85.870155   87.719757    0.710708
H   22.282219   50.450779   93.829353
H    9.573547   96.681671   86.484482
H   12.315979   47.544815   97.268173
H   50.936821   73.419655   57.761200
H   76.822952   67.948578   13.454694
H   36.341911   79.414276   55.796562
H   34.705196   49.927738   44.817322
H   37.274178   34.106831   51.699474
H   12.571159   78.125664   52.946751
H   67.857422   85.619606   33.937187
H    0.958037   26.317032   90.637962
H   18.656374   55.829571    3.121406
H   30.364632   80.482613   57.921013
H   53.991924   77.741936   32.656105
H   88.252754   34.806686   61.922150
H   15.968299   61.850922   83.476509
H   99.222458   89.278069   11.678166
H   29.844559    9.061430   13.886584
H   56.237465   11.238544    6.411013
H   35.030739   24.614027   91.674866
H   17.643518   68.125450   43.147732
H   57.080189   45.635067    3.765142
H   97.318840   28.861473   25.279997
H   33.696453   79.133347   89.779900
H   12.884771   56.465500   35.632790
H   30.517996   29.032322   79.198830
H   44.453693   12.641315   93.755196
H   62.100002   66.615204   50.483536
H   56.378643   22.224829   29.884285
H   41.234138   16.538151   40.480011
H   80.560905   70.426384    1.328628
H   43.345722   17.954531   80.904633
H   31.827227   21.828693    2.916139
H   62.959267   37.125000   51.459862
H   16.322437   64.675407   46.855682
H   33.217125   87.048721   22.526991
H   96.828171    9.792118    3.878372
H   61.522785   14.323337    3.934779
H   31.933929   30.688942   46.405960
H   95.886101   48.921200   11.342031
H   86.983795   28.170622   89.461311
H   24.152395   57.332829   11.134231
H    6.386391    3.677238   77.396805
H   51.064579   29.375822   54.707932
H   22.056978   55.975929   56.363262
H   35.798115   52.627911   38.345963
H   41.193001   12.671181    0.331526
H   78.403847   38.493389   92.927628
H    0.282289   66.634277   90.832275
H   86.834557   62.463936   96.725197
H   83.201721   79.268135   96.243530
H   39.249168   18.019289   30.877010
H   59.007179   65.003830   47.494499
H   37.010849   89.354027   94.901604
H   72.819542   84.403625   48.266792
H   87.865501   32.354099   99.025742
H   87.288704   74.657829   20.511902
H    3.653252    0.589030   37.155994
H   54.461926   80.255867   58.416279
H   86.527908   45.861149   46.766457
H   71.673134   66.972763   96.325912
H   61.899158   56.252270   35.802525
H   36.930077   61.253250   68.781715
H   82.745834   50.771637   78.203796
H   29.508373   35.245941   25.309143
H   25.390427   85.814957   95.033119
H   91.289673    4.813034   22.821362
H   41.270363   13.802795   47.855179
H   97.922714   96.571854   68.633461
H    9.784925   49.018288    6.871256
H   35.844540    2.014488   17.412270
H   30.711823   14.202718   88.516800
H   71.182678   91.569633   83.197792
H   52.553944    5.748878   20.599911
H   99.203560   71.367683    2.595765
H   11.516769   16.210007   75.993126
H    9.249145   92.784248   32.794174
H   55.670822   17.290691   87.258430
H   16.436918   38.434723   14.322073
H   84.522087   48.088047   26.674286
H    1.144799   11.740322   46.594513
