100
TIME:    9.351, STEP:  9351
H   84.952301   64.490334   90.584915
H   42.223862   11.580154   67.716728
H   40.505978   46.651985   13.573675
H   83.046143   47.389824   27.601999
H   11.406225   22.280869   12.162235
H   83.011597   91.077461    4.806384
H   62.882404   92.761726   21.713558
H   84.916138   97.582901   49.616562
H   23.762444   87.231354   11.474707
H   19.349497   50.651508   73.850197
H   30.447784   42.498734   39.011848
H   98.937675   92.408073   27.314270
H   47.467468   95.985451   95.831177
H   92.076324   76.253487   68.856285
H   94.183235   34.755409    1.212252
H   25.540112   93.856186   56.826233
H   72.155190    0.467768   24.646772
H    1.032406   39.819160   75.373611
H   90.912460   70.640732   56.007244
H   40.582577    7.234980   52.992149
H    9.374901   25.295843    3.441735
H   58.869823   56.497574   22.954224
H   60.892876   18.577444   64.807404
H   50.215588   48.693329   12.587240
H   95.139755   44.579918    5.596523
H    3.514830   50.436020   10.910872
H   55.732521   53.768276   85.504501
H   43.531242   92.912781   75.867973
H   14.499759   97.488182   15.145336
H   59.551735   59.402237   26.765945
H   84.076653   60.577137   69.557739
H   56.185139   94.154861   33.595146
H   29.028969   84.319016   40.208885
H   73.203979   16.759216   77.808952
H   48.235252   51.668068   93.974625
H   85.504150   17.843039   90.028786
H   76.681091   62.081306   45.287495
H   77.496895   87.825706   82.315117
H   50.364559   77.675194   38.130707
H   82.433472   36.773956   73.752640
H   96.177368   77.036850   62.649990
H   12.162617   78.273117   57.344707
H   91.761871   19.582726   76.904686
H   82.255653   69.605568   95.025459
H   45.525627   62.962269   56.303959
H   57.422707   41.266827   21.150805
H   14.799445   33.378452   15.230730
H   56.758358   91.682266   47.164051
H   38.368477   57.999493   71.460419
H   22.061056   73.066185   29.710579
H   43.349277   66.902718   51.251923
H   59.587765   96.035370   60.201149
H    2.830990   76.229004   59.782494
H   60.139977   54.637222   44.449471
H   96.253914   78.082199   79.873917
H    5.242418    2.697379   74.296677
H   89.064972   19.727592   45.345421
H   29.760798   93.800224   72.694603
H   27.772388   33.882652   93.608925
H   41.948803   46.537739   97.645912
H   49.571224   43.705967   85.321754
H   67.032646   40.904282   72.253426
H    8.899623   69.187523   92.244324
H   85.156555   92.701859   73.261810
H    3.479336   13.993938   66.386559
H   26.902332   77.407738   99.088463
H   37.320663   71.648590   18.528488
H   34.428345   52.331367   13.234482
H   22.954103   77.883118   73.755219
H   19.938934   18.321627   82.010300
H   25.088810   59.157284   49.984169
H    3.235592   41.110741   41.470150
H   97.289230   55.770336   21.989140
H   24.358204   57.594135   47.548592
H   12.918160   42.084087   10.300671
H   46.722610    6.883730   66.724411
H   16.052986   16.447102   56.586586
H   71.299019   39.288887   30.870750
H    9.928895   26.051884   22.014345
H   40.943108   99.625404   15.324104
H   93.876915   26.022745   38.879951
H   42.987267    5.118237    4.699628
H    9.344645   63.500034   20.484753
H   93.483131   12.344374    9.348566
H   97.015503   63.957451   41.279007
H   36.078373   52.533058   91.144913
H   91.686989   23.458290   69.434929
H    6.418375   56.799904   98.623734
H   49.745121   73.523659   51.711678
H   39.584881   24.550438   58.490326
H    6.704361   78.356415   30.938133
H   70.178207   98.764420   11.702172
H   84.870712    8.090284   42.131767
H   50.512733   80.449265   58.072689
H   94.916321   12.123463   30.960661
H   66.275848   26.470873   84.457474
H   20.363956    4.313554   99.403137
H   20.227716   49.147144   91.155785
H   63.252953   77.182076   61.794331
H   20.038559   38.672649   96.927933
