100
TIME:    2.138, STEP:  2138
H   72.738190   25.955734   97.188614
H   41.797920   20.663328   12.864374
H   16.505117   27.719906   98.238258
H   81.835464   44.565147   22.971718
H   76.021179   44.127644    7.735277
H   94.863777   98.891838   90.478966
H   40.917645    5.704756   57.647240
H   51.843712   73.565491   11.889360
H    1.071829   80.733353   65.508934
H   16.414476   47.081871   91.410789
H    1.383481   52.269520   33.806744
H   74.240173   30.857378   40.743446
H    7.264789   32.355553   12.629448
H   49.220146   98.485939   19.942493
H    6.505587   79.052582   48.001350
H   15.560284   24.731941   55.569107
H   52.175446   23.386360   68.012756
H   46.832703   90.729561   25.425346
H   78.563499   68.046890   75.999847
H   34.916794   60.408871   61.897621
H   37.404678   43.373112   99.215668
H   67.352493   46.922211   37.207809
H   57.198647   77.234001   71.179398
H   20.398186   62.323673   48.288269
H   53.116447   16.611504   52.336456
H   36.855686   63.900555   88.777351
H   77.717201   53.604366   42.392612
H   52.143120   56.234325   37.442471
H   57.659592   43.067818   56.107628
H   82.974129   37.924667   53.353268
H    0.204621   13.771101   40.231480
H    0.751938   93.442802    1.338716
H   20.955132   12.056210   90.404877
H   68.436760   77.787857   81.680893
H   27.627815   97.303589   54.916565
H   58.445446   52.435940   13.290139
H   84.860870   26.238512   76.931396
H   75.622643   19.822613   73.313393
H   54.828842   34.832031   37.123787
H   61.816807   12.030530    6.247149
H   89.132805   29.543692   92.714890
H   39.469940    7.811349    3.246888
H   29.656683   76.320892   55.902489
H   42.833046   48.604225   89.776291
H   71.199089   47.535122   39.065491
H   50.504406    3.695850   91.851601
H   58.432362   41.109894   45.978600
H   56.353596   17.396067    0.865282
H   27.526106   55.379360   59.190346
H   70.728050   63.291126   34.129932
H   43.381504   63.233452   75.959579
H    9.035971   65.349640   33.706364
H   53.230179   34.405579   78.698662
H   27.182232   72.325569   26.159960
H   70.554871   45.933788   18.548048
H   96.241348   10.285013   19.844238
H   31.791636   27.856148   59.329048
H   66.857025   74.979782   58.485916
H   58.895309   29.104944   47.348289
H   17.933399   92.121185    2.800632
H   94.566971   79.144356   47.699833
H   23.030323    8.043520   98.615448
H   19.251644   61.357796   86.882980
H   89.851990   53.424683   69.096596
H   17.182236   90.085449   94.668793
H   70.004555   35.986641   72.600594
H   16.032793   22.279554   70.284866
H   32.679619   39.812195   68.411362
H   63.461761   96.163292   26.140602
H   73.698059   55.679474   97.231110
H   54.141579   49.930336   36.505138
H   97.679749   80.568939   13.155630
H   67.590027   12.553051    6.926304
H   83.139030   14.082253   76.140862
H   65.251366   31.685820   63.472881
H   76.203484   44.598755   52.068577
H   61.072418   41.239433   28.861082
H   32.427456   10.921648   32.513790
H   64.035431   47.238750   41.531570
H   94.673714   92.513855   36.730507
H   52.721111   51.400249    7.772297
H    1.738979   58.190323    7.998980
H   53.074200   42.942566   33.533726
H   97.244514   95.113014   68.147186
H   48.226929   15.150349   40.497253
H    2.082090   87.587105   90.252357
H    9.946920   47.902908   25.491514
H   90.372742   34.120972   73.514107
H    0.050978   75.131889   10.708097
H   77.310989   21.311646    0.647346
H   11.518433   88.877426   78.612381
H   36.478596   56.302250   74.259483
H   22.461967   91.694809   84.316483
H   53.874302   42.918453   70.971931
H   19.626728   58.221489   65.215630
H   70.511612   11.304379   57.018494
H   92.898270   90.376076   14.231173
H   14.715144   34.441467   21.827118
H    6.864006   46.066372   65.959366
H   72.018356   23.786602   91.765533
