100
TIME:    1.913, STEP:  1913
H   87.954254   46.589432   97.394608
H   48.056694    8.464212   98.671776
H   12.637587   11.533095    0.878827
H   81.797699   53.834862   35.304958
H   78.036484   26.092899   13.835693
H   98.351936   99.135597   68.197319
H   52.709064   90.512169   40.051949
H   69.528267   54.099964   32.548721
H    6.602806    2.366162   79.670998
H   22.562529   43.851204   82.601128
H   22.312424   43.216099   55.478992
H   82.826675   19.579226   56.759453
H   21.576805   45.968300   34.992455
H   60.360970   99.179451    2.819279
H    3.768652   99.150696   58.817734
H   24.607559   44.411491   74.245865
H   70.265121    8.506752   47.528069
H   42.024467    1.671307   33.226364
H   75.058174   58.607964   64.144913
H   40.978157   65.186630   46.578560
H   50.756500   65.773071    5.322613
H   45.778812   46.624878   56.367332
H   60.202721   79.063911   77.616699
H   41.303108   59.625156   64.999405
H   61.163933   34.455704   50.676491
H   37.887371   70.605621    9.867127
H   97.118370   62.958195   37.927700
H   71.127792   45.732082   30.005465
H   52.767242   22.654242   66.743767
H   74.346428   43.493362   35.466152
H   91.353737   93.593460   58.034481
H   86.545258   99.660378   22.168053
H    5.106199   28.517677   70.135101
H   58.930153   98.407822   91.160034
H   33.221214   14.312160   41.216270
H   38.882915   34.759968   14.063474
H   63.279663   34.478859   59.202213
H   84.923256   23.940769   57.435429
H   64.721024   39.671089   58.775902
H   83.009941   33.094364   88.545120
H    4.509727   21.823221   87.413986
H   59.691650   97.713066   92.676147
H   27.718626   74.971634   39.651306
H   57.201103   44.832825   67.776169
H   90.716988   56.411732   19.810778
H   53.407200   99.404335   90.938362
H   56.279591   28.936312   43.969673
H   56.341579   15.079496   86.943550
H   20.949759   74.014122   68.165726
H   66.010796   59.866482   49.866131
H   43.398670   84.955482   73.587219
H   98.101845   86.227097   48.477825
H   48.562706   33.100952   91.765526
H   32.392155   75.995689   16.231924
H   88.466019   26.208433   16.639174
H   95.959824   10.521477   27.503769
H   17.528292   34.348381   37.929741
H   83.611176   96.228027   64.281204
H   41.150673   19.597479   64.622513
H   32.780392   74.828018    9.199759
H   80.374008   89.608833   65.242027
H   31.015152   10.138218    8.796248
H    3.989752   76.700890    2.318822
H   74.402466   52.200737   75.204308
H    8.251552    8.055448   73.715805
H   83.826729   47.172096   59.296841
H   34.085464   14.500802   59.422131
H   48.221840   26.944122   57.655064
H   52.247124   12.330338   40.252884
H   69.138733   44.361839   97.704895
H   61.286125   65.240288   39.204014
H   16.231794   88.036209   96.682243
H   82.260208   23.681858   12.695843
H   88.089745   28.320765   89.513283
H   54.403885   31.365671   46.416607
H   70.885414   30.177591   67.207756
H   40.642998   60.741882   24.881113
H   21.856548   25.633886   20.087223
H   53.249199   47.898289   39.021492
H    5.708217    4.767405   56.114510
H   48.317997   49.072521   94.324623
H   84.857666   56.720901   26.813925
H   38.838322   39.186615   12.103598
H   81.767525   75.859474   88.698486
H   59.182358   29.224838   62.308548
H    7.260899   79.323326   74.627739
H   94.919655   64.262238   14.762629
H   86.750687   52.135117   75.855568
H   95.381783   87.659737   12.548737
H   97.203110   30.569344   92.603386
H    2.310383   76.727234   73.860794
H   19.829912   39.381329   69.971382
H    8.026104   84.951950   66.910019
H   32.126522   29.269831   55.801430
H   23.517433   78.375031   60.045189
H   51.927551   20.188940   68.639969
H   10.757655   77.463707   27.171066
H   13.889024   32.525726   25.427715
H   17.582050   45.096485   84.807785
H   58.045120   29.565582   13.436396
