100
TIME:    0.803, STEP:   803
H   63.018715   48.382088   98.410843
H   78.933311   48.283199   28.653166
H   93.561096   31.674545   13.911331
H   81.611389   99.565453   96.147575
H   87.978653   37.121513   43.932106
H   15.564419    0.339691   58.270092
H   10.885845   15.559353   53.248417
H   56.772079   58.070728   34.465340
H   33.888725    9.088242   49.541725
H   52.895836   27.914333   39.135284
H   25.561920   98.553162   62.399521
H   25.191746   63.940941   35.770119
H   92.183762   13.124908   45.317009
H   15.321777    2.601434   18.348339
H   90.268639   98.297546   12.172338
H   69.237228   41.501156   66.384262
H   59.506538   35.100662   46.466148
H   18.303841   55.650803   71.707809
H   57.768288   12.038981    5.668974
H   70.912910   88.696136   70.970314
H   16.625381   76.276581   35.449272
H   39.344776   45.159805   50.882191
H   75.022820   88.091469    9.374683
H   44.434143   46.312473   47.437569
H    0.864799   22.490566   42.487328
H   42.977016    3.683433   13.908271
H   92.835068    9.096583   15.900801
H   64.785118   93.920517   93.316086
H   28.631653   21.946379   19.213985
H   31.783129   70.965591   47.224514
H   47.689487   94.051933   45.869041
H   16.458899   30.326202   24.926323
H   26.919674    9.731226   70.137535
H   12.030713    0.132667   37.921486
H   60.812004   98.219368   73.624832
H   42.373047   47.565075   17.881323
H   56.816479   75.128273   71.738594
H   30.801323   44.257008   79.106499
H   14.619913   63.366310   65.164062
H   87.559715   37.008991    1.212028
H   80.365051   83.733971   61.261974
H   59.452110   47.897858   40.526340
H   18.157545   68.315292   59.473633
H   28.081961   26.228563   59.245979
H   87.001045    0.209972   24.822584
H   67.695839   78.299614   86.467262
H   44.559010   69.059448   34.484810
H   56.282299    3.651066   18.262983
H   88.503227   65.943710   12.441451
H   42.731266   42.971569   27.502045
H   43.483356   92.118752   61.883579
H   44.156685   89.226578   21.346100
H   25.536509   26.664795   56.234032
H   58.094440   94.101616   67.250748
H   76.833466   28.899759    7.220085
H   94.570969   11.688030   65.290787
H   47.157654   66.376732   32.359520
H   66.265564    1.053866   92.871292
H   53.606956   72.697128   49.837215
H    6.029822   89.508713   40.770348
H   10.354248   41.227478   51.786720
H   70.411102   20.471146   59.023376
H   28.699558   52.395164   78.469093
H   98.179390   46.162605    5.337187
H   64.196815   96.709435   70.343803
H   52.015724    2.353643   93.665489
H   23.142637   76.123169    5.830628
H   24.897240   63.461594    4.590644
H   96.922539   92.087875    9.868828
H   46.652588   88.531883    0.042178
H   96.532555   40.766293   52.516697
H    7.756495   24.875664   15.413088
H   54.634888   78.586220   41.158901
H   12.516591   98.563644   55.483925
H    0.888628   29.786272   62.270802
H   44.643360   59.038620   41.897755
H   39.862164   56.947136    5.242914
H   69.706726   98.214134   58.788250
H    0.040962   51.150242   26.642193
H   60.144913   65.222862   51.741974
H   26.595966   37.589062   27.981651
H    1.572370   49.471756   19.631584
H   68.603554   20.659849    6.381666
H    5.408138   80.875343   90.084908
H   13.229778   98.654892   69.910637
H   32.810719   38.550068   97.545876
H   20.785284   44.968285   61.833233
H   68.881882   41.003746   87.393639
H   72.347115   49.462105   21.630535
H   95.340439   76.242920   52.919399
H   56.884617   16.791883   50.419628
H   37.700825   55.899208   48.822830
H   36.805397   51.690315   81.036949
H   24.840578   61.942039   80.960304
H   42.709217   77.802094   34.537682
H   60.246094   64.021416   25.973137
H   98.864365   13.762767   91.007584
H    9.813497   23.074738   43.187996
H   70.459007   40.311710   77.787575
H   89.110458   58.079090   20.345591
