100
TIME:    6.454, STEP:  6454
H   80.864822   30.157480   93.237198
H   22.231522   54.597958   85.051064
H   90.704803   38.230110   47.583607
H   82.559891   66.745514   86.397217
H   37.363159   90.073990   90.711487
H   27.935390   94.215996   17.907162
H   14.716542   97.141792   95.164284
H   12.614624   46.954388   15.608464
H   94.976234   65.767593   93.830177
H   98.477699    9.053949   60.417942
H   99.919678   25.933035   18.067898
H    9.508324   47.196201   33.525749
H   32.223679   71.304283   83.719658
H   35.516884   85.182838   48.393032
H   58.996284   93.529747   40.529400
H   42.023041   47.238625   97.302246
H    5.114774    8.853564   60.921425
H   39.082981   80.787506   75.795448
H   45.788372   49.107811    3.385072
H   18.636192   68.751991   55.750938
H   81.287216   13.700794   82.069695
H   81.131607   52.651764   69.660568
H   99.571999   42.132256   47.694443
H   19.387959   14.036837   27.742937
H   98.752998   74.326004   84.204140
H   17.125349   35.863251   83.511818
H    5.542873   74.193192   28.024549
H   87.972031   57.690605   80.108566
H   51.507042   34.649029   52.087738
H   48.467731   31.103508   96.463516
H   70.062660    0.798779   98.759071
H   73.266785   74.192749    1.784968
H   24.967838   96.277458   79.224243
H   50.798958   82.252182   99.855408
H   20.334076   71.011696   17.717020
H   33.672451   90.933418   99.134956
H   98.821968   68.175903   17.015112
H   97.237892   40.842617   77.881935
H   72.648254   40.793938   18.871710
H   55.298130    7.981045   45.822071
H   94.166916   77.634499   94.399147
H   56.306030   66.912506    9.448506
H   66.830414    2.203467   67.652245
H   67.232651   20.972921   11.773992
H   96.819328   77.249191    8.396232
H   94.816002   86.017014    9.381300
H   92.156540   75.828262   87.416924
H   56.584095   61.844086   67.914871
H   53.684708   97.930458   87.021439
H   61.242947   28.966681   32.267860
H   43.058430   46.551697   21.461853
H   18.787533   64.857376   50.371315
H   42.748234   59.431213   28.030043
H   27.232475    1.897119   16.613529
H   26.918175   24.202374   55.244038
H    1.634208    5.744741   72.917404
H    5.408374    3.318868   69.816536
H   45.477203   67.386848   47.315781
H   99.290955   11.467120   16.009514
H   33.121323   23.863811   80.043480
H   66.823906   78.430069   11.191994
H   69.852852   67.869156    3.329598
H   12.222078   66.873695   90.900299
H   86.224472   76.920776   51.915730
H   88.493103   45.374241   96.601524
H    4.867950   21.425468   27.794691
H   69.751938   71.491974   78.661026
H   34.543953   86.648048   74.741119
H   78.569191   86.043060   55.450191
H   61.138977   72.760674   88.142853
H   17.088623   56.271103   84.729073
H   41.805172   37.329407   29.153111
H   86.177994   99.066559   96.265686
H   88.131859   40.945492   19.678671
H   73.343132   37.842602   90.654678
H   78.235481   21.213223   61.655846
H   52.943935   67.191551    5.204220
H   35.200985   28.708651   70.871162
H   71.004448   34.561291   89.688347
H   83.015060   57.439857   64.903313
H   37.167397   96.051254   65.729492
H   25.600298   86.325974   47.062496
H   26.104797   15.051780   44.590164
H   94.174736   64.441917   73.943352
H   38.073448   45.184357   22.109344
H    2.749138   46.121010   89.968445
H   98.202782   34.094414   31.295080
H   59.827080   88.618286   28.659882
H   89.621201   34.823296   75.405403
H   95.718033   43.741772   54.930344
H   88.146904   21.929680   69.758469
H   55.829540   80.882004   56.497871
H   99.167450   21.170925   18.102304
H   71.020576    4.729809   61.982300
H   45.006905   71.620285   64.392181
H   26.995560   40.869659   34.091599
H   50.313988   38.061371   66.013885
H   25.819613    5.803503   49.316521
H    1.259550   64.672142    4.446213
H   40.093472   13.015217   76.006645
