100
TIME:    1.867, STEP:  1867
H   91.065094   50.807877   97.436722
H   49.336266    5.970136   95.770103
H   11.846891    8.223792    1.418844
H   81.789978   55.730003   37.826550
H   78.448502   22.405796   15.082890
H   99.065071   99.185432   63.641933
H   55.119755   87.406242   36.454689
H   73.143776   50.120518   36.772430
H    7.733574    6.788940   82.566353
H   23.819464   43.190712   80.800041
H   26.591232   41.365177   59.909763
H   84.582138   17.273470   60.033836
H   24.502869   48.751350   39.564308
H   62.638649   99.321236   99.318611
H    3.209081    3.259540   61.029083
H   26.457077   48.435158   78.064224
H   73.963455    5.464699   43.340157
H   41.041451    3.908342   34.821091
H   74.341530   56.678078   61.721569
H   42.217369   66.163681   43.446663
H   53.486206   70.352295    6.571125
H   41.368046   46.564163   60.284309
H   60.816887   79.438026   78.932770
H   45.577003   59.073460   68.415573
H   62.809196   38.103851   50.337120
H   38.098293   71.976440   14.178662
H    1.084882   64.870377   37.014874
H   75.009323   43.584957   28.484964
H   51.767029   18.480894   68.918266
H   72.582542   44.631851   31.809238
H   89.544228   89.468369   61.674206
H   83.640778    0.931302   26.426506
H    1.865946   31.883133   65.991058
H   56.986580    2.623417   93.097992
H   34.364616   17.789436   38.415321
H   34.883465   31.146254   14.221578
H   58.867844   36.163429   55.577579
H   86.824715   24.782703   54.189472
H   66.788834   40.653053   63.184914
H   87.342796   37.400898   84.926102
H    7.653206   20.244814   86.330246
H   63.825867   95.648766   90.514984
H   27.322401   74.695786   36.328842
H   60.138573   44.061783   63.278423
H   94.707314   58.226505   15.874323
H   54.000660   98.526955   90.751656
H   55.793873   26.454729   43.576607
H   56.339123   14.605886   84.097328
H   19.605261   77.824059   70.000504
H   65.046379   59.166332   53.083309
H   43.402180   89.396431   73.102203
H   95.866280   90.495377   51.497768
H   47.608467   32.834229   94.436974
H   33.457294   76.746025   14.202192
H   92.127853   22.175817   16.248915
H   95.902267   10.569820   29.069717
H   14.612188   35.675682   33.554771
H   87.036469    0.572133   65.466019
H   37.522881   17.653730   68.153793
H   35.815777   71.292526   10.508021
H   77.472336   91.748238   68.828758
H   32.647675   10.566467   10.877658
H    0.869542   79.837700    5.474660
H   71.243896   51.950508   76.452995
H    6.425685   11.729478   69.432083
H   86.652596   49.458900   56.576962
H   37.776077   12.910550   57.201305
H   51.399361   24.313210   55.455997
H   49.954353   15.635605   43.138062
H   68.206604   42.048012   97.801758
H   62.746788   68.370079   39.755711
H   20.024710   89.562851   93.314507
H   85.259445   25.957081   13.875393
H   89.101891   31.231737   92.247200
H   52.186218   31.300219   42.929546
H   69.798164   27.229418   70.303154
H   36.466316   64.728989   24.067430
H   19.695385   28.641722   17.546680
H   51.044167   48.033054   38.508400
H    7.964181    7.272676   60.077461
H   47.417805   48.596630   91.575264
H   81.406403   56.420486   30.660536
H   35.927876   38.418732    7.722398
H   78.603340   71.923195   92.900085
H   61.422134   32.102295   66.767746
H    8.319691   77.633842   71.433372
H   91.847420   67.606812   12.569090
H   86.010178   55.818008   76.334267
H   94.427193   90.220985   12.925045
H    1.270021   32.462029   90.958824
H    0.427841   74.243195   72.889359
H   16.426378   35.921642   69.094704
H    5.074772   83.573410   63.351364
H   27.680309   26.479586   52.700066
H   24.312866   82.495209   58.988121
H   48.128143   22.005293   71.015915
H   14.408874   74.823845   29.816544
H   13.720128   32.134064   26.163837
H   19.773220   44.898197   88.661240
H   55.188370   30.747063   17.866940
