100
TIME:    2.095, STEP:  2095
H   75.646149   29.899063   97.227982
H   42.994041   18.331942   10.152023
H   15.765989   24.626427   98.742821
H   81.828247   46.336693   25.328693
H   76.406326   40.681004    8.901134
H   95.530403   98.938423   86.220695
H   43.171116    2.801103   54.284584
H   55.223427   69.845245   15.837528
H    2.128862   84.867615   68.215462
H   17.589437   46.464455   89.727165
H    5.383224   50.539310   37.948551
H   75.881149   28.701998   43.804283
H    9.999951   34.957100   16.903236
H   51.349281   98.618477   16.670055
H    5.982530   82.893555   50.068481
H   17.289345   28.492867   59.138443
H   55.632584   20.542702   64.097641
H   45.913795   92.820641   26.916233
H   77.893593   66.243195   73.734238
H   36.075188   61.321873   58.969978
H   39.956360   47.654018    0.382859
H   63.230038   46.865128   40.869659
H   57.772758   77.583717   72.409637
H   24.393349   61.807957   51.481972
H   54.654411   20.021729   52.019218
H   37.052853   65.181946   92.807945
H   81.424980   55.391987   41.539318
H   55.771179   54.227230   36.020969
H   56.724609   39.166481   58.140312
H   81.325279   38.988907   49.934841
H   98.513100    9.914873   43.633831
H   98.036896   94.631050    5.319417
H   17.926281   15.202179   86.531097
H   66.619942   81.728561   83.492462
H   28.696812    0.554061   52.298286
H   54.706829   49.057865   13.437932
H   80.736450   27.813383   73.543152
H   77.400093   20.609638   70.278801
H   56.644020   35.768982   41.290855
H   65.866905   16.056120    2.863989
H   92.071602   28.068224   91.701828
H   43.334534    5.881390    1.226773
H   29.286299   76.063034   52.796707
H   45.578941   47.883469   85.571823
H   74.929176   49.231541   35.385597
H   51.059162    2.875690   91.677071
H   58.096096   38.771454   45.565567
H   56.351299   16.953344   98.204689
H   26.269293   58.940495   60.905792
H   69.826530   62.636639   37.137295
H   43.384785   67.384773   75.506195
H    6.946367   69.339554   36.529354
H   52.338173   34.156250   81.195885
H   28.177906   73.026970   24.262602
H   73.977890   42.164005   18.183241
H   96.187546   10.330204   21.308060
H   29.065752   29.096886   55.239403
H   70.058929   79.040558   59.593460
H   55.504112   27.287962   50.649597
H   20.770824   88.816269    4.023593
H   91.854538   81.144234   51.052319
H   24.556313    8.443840    0.560951
H   16.334991   64.290031   89.832932
H   86.899414   53.190773   70.263847
H   15.475482   93.519623   90.664444
H   72.646126   38.124306   70.058098
H   19.482878   20.792933   68.208878
H   35.649910   37.353027   66.355713
H   61.318520   99.252998   28.837616
H   72.826721   53.516548   97.321655
H   55.506981   52.856010   37.021183
H    1.225382   81.996017   10.007364
H   70.393661   14.679890    8.028927
H   84.085167   16.803438   78.696480
H   63.178131   31.624636   60.213238
H   75.187141   41.842690   54.961773
H   57.168129   44.966568   28.100466
H   30.407238   13.733320   30.138935
H   61.973541   47.365055   41.051613
H   96.782509   94.855576   40.435005
H   51.879627   50.955395    5.202326
H   98.512665   57.909500   11.594725
H   50.353565   42.224762   29.438175
H   94.286690   91.433449   72.074768
H   50.320633   17.840118   44.665634
H    3.071818   86.007805   87.266319
H    7.075048   51.029358   23.441114
H   89.680527   37.563675   73.961586
H   99.158638   77.526100   11.059864
H   81.112595   23.080894   99.110130
H    9.758698   86.555389   77.704300
H   33.296703   53.068523   73.439980
H   19.703114   90.406174   80.989914
H   49.718060   40.310017   68.072502
H   20.370285   62.073288   64.227501
H   66.959991   13.002356   59.239487
H   96.311447   87.908379   16.704178
H   14.557263   34.075348   22.515232
H    8.912355   45.881016   69.561508
H   69.347916   24.891029   95.907013
