100
TIME:    0.623, STEP:   623
H   75.191566   64.889046   98.575638
H   83.940331   38.523220   17.298796
H   90.468445   18.725098   16.024826
H   81.581177    6.981867    6.013856
H   89.590897   22.693718   48.812782
H   18.355633    0.535591   40.443401
H   20.319481    3.404633   39.172184
H   70.919724   42.498981   50.992897
H   38.313469   26.394592   60.872749
H   57.814964   25.330486   32.086182
H   42.305084   91.310425   79.738564
H   32.062321   54.918419   48.582924
H    3.633980   24.015198   63.206871
H   24.234409    3.156415    4.649762
H   88.079613   14.375182   20.824911
H   76.474472   57.245937   81.325668
H   73.978279   23.196976   30.077375
H   14.457391   64.404160   77.948044
H   54.965401    4.487334   96.185776
H   75.785347   92.469940   58.690346
H   27.306839   94.195282   40.334068
H   22.085255   44.922226   66.209297
H   77.426079   89.555397   14.524868
H   61.158081   44.153660   60.806557
H    7.302286   36.765926   41.159195
H   43.802364    9.046611   30.779795
H    8.356390   16.579277   12.328871
H   79.973717   85.518723   87.366989
H   24.717773    5.615671   27.722210
H   24.881655   75.420547   32.914822
H   40.608799   77.910271   60.112816
H    5.093858   35.298889   41.589836
H   14.240717   22.900400   53.921715
H    4.425085   16.628326   45.504799
H   65.286186   11.826234   62.663391
H   26.722790   33.425671   18.500677
H   39.552837   81.720070   57.555248
H   38.240440   47.551533   66.403557
H   22.712090   67.208778   82.415344
H    4.514164   53.860645   87.050591
H   92.666992   77.556908   57.019878
H   75.629478   39.818787   32.069614
H   16.607100   67.235886   46.472687
H   39.576172   23.212130   41.645882
H    2.615231    7.311646    9.419065
H   69.994728   74.915825   85.761391
H   42.658375   59.349621   32.946724
H   56.272686    1.797729    7.125607
H   83.240776   80.852158   19.621874
H   38.956089   40.231853   40.091003
H   43.497089    9.496737   59.985691
H   35.408821    5.928846   33.163269
H   21.802530   25.621094   66.688545
H   62.262379   97.037712   59.307636
H   91.162384   13.119959    5.692642
H   94.345749   11.877201   71.418411
H   35.746979   71.570518   15.240059
H   79.668884   18.052406   97.507523
H   39.411247   65.091843   63.656643
H   17.907677   75.674179   45.889977
H   98.999557   49.597687   65.820557
H   76.799652   22.146561   67.167831
H   16.490314   64.669640   90.817726
H   85.819771   45.183449   10.224730
H   57.051620   11.085747   53.580559
H   63.073463   11.301899   83.022484
H   37.584587   69.899414   97.140060
H   37.331017   53.167404   95.985603
H   87.952202    5.021507   21.158466
H   43.006500   79.479149    0.420689
H    2.248413   53.014675   54.675510
H   22.598146   30.849480    2.234237
H   66.371033   87.490639   45.774532
H   16.478233    9.954504   66.181862
H   92.209518   29.530153   48.625782
H   40.387531   47.501602   54.008808
H   23.518982   72.547722    2.057961
H   61.250000    9.983910   48.846996
H   91.413948   51.677586   24.635128
H   68.972427   75.025414   67.249176
H   23.073475   35.726879   17.223976
H   88.067345   48.296219   34.683662
H   57.214298   17.655775   89.237610
H   93.026031   65.472511    6.525948
H   21.994699    9.914073   87.359673
H   36.953938   31.937679   85.046181
H    8.763494   58.055748   53.250164
H   65.984238   55.415062   89.264061
H   68.611763   59.484383   23.103390
H   11.254604   83.650452   46.484158
H   49.518284    7.072433   46.618359
H   24.382647   42.361305   45.393723
H   25.256420   46.297401   67.111778
H    7.442519   51.023003   68.823158
H   45.821095   93.924530   30.401596
H   45.378845   71.129570   35.270317
H   13.151770    3.433210    1.359488
H    9.152600   21.542145   46.067787
H   79.033836   39.535801   92.866310
H   77.931870   62.702961   37.682480
