100
TIME:    6.794, STEP:  6794
H   57.871658   98.978676   92.925919
H   12.842560   73.021828    6.488288
H   96.551666   62.691475   43.591450
H   82.616959   52.737946   67.761963
H   34.317810   17.326399   81.492432
H   22.661800   93.847649   51.579258
H   96.897263   20.100567   21.752802
H   85.891289   76.368774   84.391365
H   86.618385   33.078079   72.429726
H   89.191200   13.936495   73.730324
H   68.293701   39.613758   85.316856
H   96.531296   64.238739    9.325001
H   10.527512   50.742611   49.935478
H   18.682888   84.134865   74.267097
H   63.125923   63.159264   24.179455
H   28.352345   17.501076   69.079590
H   77.773994   31.341106   91.872963
H   46.353947   64.243011   64.008339
H   51.082714   63.372185   21.296680
H    9.476799   61.531200   78.899742
H   61.111130   79.853363   72.840263
H   13.727737   53.103119   40.706406
H   95.032509   39.367058   37.966965
H   87.797478   18.104219    2.491425
H   86.592354   47.362427   86.715126
H   15.572964   25.812973   51.537804
H   76.225288   60.060387   34.771526
H   59.282883   73.560661   91.345749
H   58.899925   65.496803   36.015350
H   61.505146   22.688591   23.491886
H   83.442482   31.287025   71.859352
H   94.734680   64.797302   70.309456
H   48.917805   71.401054    9.854131
H   65.164497   51.093124   85.531372
H   11.872150   45.268898   38.404121
H   63.228420   17.563904   98.066231
H   31.432335   55.724731   43.805882
H   83.183632   34.619625    1.876206
H   58.297245   33.385490   85.923477
H   23.274918   76.152252   72.573105
H   70.929916   89.302284    2.409239
H   27.652771   68.245819   26.806217
H   69.756439    4.243137   92.212181
H   45.523129   26.679708   45.016731
H   67.325615   63.833088   37.491520
H   90.426964   92.501999   10.762602
H   94.812790   94.318253   90.680168
H   56.602291   65.345978   88.952164
H   63.622299   69.770058   73.460037
H   68.380615   34.142460    8.494983
H   43.035084   13.726572   25.045456
H   35.314907   33.306694   28.052589
H   49.801304   61.402649    8.283262
H   19.359703   96.350479   31.615894
H   99.846054   53.999245   58.136341
H    2.057678    5.387094   61.343002
H   26.962191   93.508217    2.153303
H   20.160429   35.278389   38.558456
H   26.105522   25.835049   89.908424
H   10.685713   49.998302   70.373070
H   88.271049   62.617310   84.682205
H   57.785591   64.704483   87.946747
H   35.304920   43.673012   67.585480
H    9.571060   78.772888   42.683704
H    1.987297   18.218376   28.264971
H   83.981384    4.523443   47.898148
H   42.473495   83.247955   95.075821
H   11.057793    6.092965   90.995087
H   95.513161   61.612823   34.124966
H   68.027550   89.860283   87.426910
H    6.291655   33.137863   80.651314
H   13.773557   26.044071   54.048836
H   64.009720   82.248108   87.549866
H   80.645592   19.427551   99.477783
H   89.737175   38.327679   16.429333
H   86.271675   43.004726   38.779411
H   83.822845   37.762966   11.234110
H   51.174801    6.476801   89.646492
H   87.310295   33.562603   93.480766
H   66.340866   38.918739   35.611931
H   43.820992   99.568710   86.050842
H   51.112556   88.530869   18.618740
H   47.611603   20.737707   76.969955
H   17.566395   93.536156   42.889820
H   21.517866   23.916199   89.150352
H   94.924850   58.611092   13.579326
H   20.910692    9.373475   47.507545
H   65.295219   61.412228   25.134644
H   96.676865   15.893427   72.624641
H   65.658829   29.752361   67.083862
H    2.061122   40.288086   76.938644
H   80.986099    6.453361   62.975075
H   20.961826   31.373104   44.395027
H    3.881100   25.356897   84.908020
H   39.128914   41.164848   72.205292
H   55.078140   27.443586   16.530258
H   23.326490   57.573395   46.460358
H   25.163332   22.626808   42.491722
H   85.062675   66.140343   75.968956
H   61.211178    4.290456   43.253231
