100
TIME:    7.056, STEP:  7056
H   40.153397   74.951881   92.686050
H    5.607453   87.218025   23.008232
H    1.056776   81.541115   40.515141
H   82.660934   41.943878   53.400379
H   31.971087   38.326855   74.388336
H   18.598034   93.563805   77.525955
H   83.164810   37.792843   42.241543
H   65.298607   99.036316   60.336281
H   80.177925    7.887763   55.937809
H   82.035133   17.698702   83.988686
H   43.923096   50.155964   60.079041
H   86.532791   77.371521   90.675667
H   93.811928   34.894032   23.900928
H    5.710621   83.327309   94.204140
H   66.308174   39.756126   11.580379
H   17.817135   94.585327   47.331543
H   56.705574   48.669582   15.723870
H   51.956867   51.494019   54.927330
H   55.162472   74.362259   35.099094
H    2.418678   55.968258   96.737938
H   45.563675   53.770912   65.728172
H   38.845932   53.450928   18.394669
H   91.534431   37.236229   30.470881
H   63.454811   21.238497   83.033951
H   77.221504   26.583847   88.650063
H   14.337643   18.090218   26.881563
H   53.632786   49.168373   39.970669
H   37.177032   85.789940    0.004990
H   64.596794   89.267738   23.630835
H   71.551620   16.204155   44.320030
H   93.752815   54.780144   51.130745
H   11.277361   57.559063   46.054787
H   67.373299   52.231590   33.457161
H   76.234413   27.082321   74.493439
H    5.351336   25.431801   54.345360
H   86.003899   38.085327   97.242683
H   56.560547   46.130005   64.450531
H   72.353584   29.824261   20.364128
H   47.237324   27.677385   60.533432
H   98.597450   51.624722   93.185776
H   53.023758   98.293343    8.581379
H    5.572670   69.273254   40.181255
H   72.011200    5.814774   11.136898
H   28.794323   31.077291   70.633171
H   44.599815   53.496769   59.911201
H   87.044823   97.499252   11.827017
H   96.859665    8.566907   93.194786
H   56.618282   68.044495    5.163126
H   71.281990   48.071453   63.009590
H   73.881592   38.130268   90.176460
H   43.017094   88.431992   27.806938
H   48.049908    8.994057   10.854192
H   55.236317   62.921814   93.067055
H   13.293037   92.076828   43.177505
H   78.985519   76.959496   60.365116
H    2.383999    5.111496   52.423904
H   43.571064   85.948372   27.071877
H    0.651761   10.535120   31.810137
H   46.768166   36.906963   69.795479
H   93.396141   70.136627   62.921165
H    4.798113   50.434006   64.253433
H   48.486702   62.265823   76.093262
H   53.093143   25.794491   49.619354
H   27.562172   80.200104   35.569614
H   12.386725   97.292908   52.663715
H   67.886230   91.498772   63.389633
H   21.452547   92.306976    7.725365
H   92.959435   21.077696    3.520202
H    8.571085   42.787170   17.691998
H   73.336632    3.037334   86.875214
H   97.971703   15.311641   77.509041
H   92.212471   17.325863   73.250282
H   46.927109   69.291229   80.833557
H   74.876762    2.845743   83.910339
H    2.366787   38.704762   36.292271
H   92.464272   59.797497   21.150484
H    7.618004   15.085430   15.880556
H   63.484035   89.345772    4.115000
H   99.875389   32.793026   96.403160
H   53.491928   24.646069   13.040402
H   48.948174    2.279745    1.710175
H   70.772438   90.229935   96.699715
H   64.184471   25.119299    1.920362
H   35.591290   15.956194   18.960972
H    8.760878    7.526948   63.752312
H   88.896164   68.234924   31.773392
H   38.409077   90.323784   60.000679
H   69.508904   40.445751   22.418137
H    2.114167    1.305968   70.481819
H   42.493702   18.972286   76.450714
H   12.783344   54.434311   82.471603
H    0.371445   26.157753   67.967918
H   37.756596   39.234783   64.655891
H   29.201984   41.252159    2.574273
H   34.599403   17.695747   78.225983
H   76.718246   17.098272    2.997215
H    2.530596   72.609131   31.392597
H   24.657610   35.590405   37.232613
H   72.581535   67.271721   54.024105
H   77.485893   97.566940   18.013103
