100
TIME:    6.282, STEP:  6282
H   92.496658   45.930717   93.394669
H   26.981232   45.277004   74.206581
H   87.746979   25.855862   49.603168
H   82.531021   73.831696   95.824463
H   38.903748   76.287430   95.375244
H   30.603207   94.402336    0.873409
H   23.731037   85.528328   81.713661
H   26.133484   32.074718   31.401455
H   99.204323   82.304642    4.656709
H    3.176004    6.584050   53.683445
H   15.918686   19.012197   34.635681
H   16.073540   38.574680   45.769096
H   43.199387   81.705223    0.810478
H   44.033424   85.712990   35.303280
H   56.907173    8.893616   48.800549
H   48.938629   62.282326   11.579944
H   18.946175   97.477089   45.263588
H   35.404728   89.157074   81.758339
H   43.110058   41.891716   94.323090
H   23.269768   72.405312   44.040367
H   91.493942   30.824421   86.738701
H   64.641800   52.423431   84.307968
H    1.868623   43.531120   52.615402
H   35.369404   11.979219   40.517529
H    4.904552   87.965591   82.933876
H   17.909422   40.948242   99.686684
H   20.374645   81.342361   24.611372
H    2.485410   49.662224   74.423874
H   47.767113   19.044228   60.218475
H   41.872334   35.360466   82.789810
H   63.293907   85.374565   12.367088
H   62.406559   78.945740   17.707817
H   12.852350    8.861628   63.729126
H   43.531685   98.014999    7.101166
H   24.614655   84.034523    7.252042
H   18.721189   77.461800   99.675606
H   82.324287   74.474731    3.462434
H    4.347126   43.990719   65.743568
H   79.907654   44.541740   35.539467
H   71.498535   24.083244   32.288776
H    5.921854   71.731972   90.346901
H   70.801208   66.238007    0.667659
H   65.350189    1.171656   55.228729
H   78.216232   18.085958   94.956749
H   11.739155   84.036179   93.677597
H   97.036339   82.736374    8.682524
H   90.812790   66.474503   85.766106
H   56.574909   60.072540   57.272480
H   48.657455   12.175247   93.881912
H   57.632931   26.348074   44.294685
H   43.070240   63.156982   19.648972
H   10.426714   80.817032   61.661964
H   39.180210   58.433899   38.019985
H   31.215172    4.703706    9.024096
H   40.613121    9.128997   53.780872
H    1.419983    5.925669   78.772690
H   94.504021    8.282136   53.457954
H   58.284821   83.629951   51.745956
H   85.724854    4.198863   29.213432
H   44.471024   10.642835   84.935570
H   55.974171   86.429581   24.602055
H   75.957466   69.470108   11.112351
H    0.544888   78.610512    2.694855
H   74.414169   75.983826   56.586048
H   81.666748   59.112247   80.584129
H   15.433578   29.976128   17.624708
H   83.551620   65.544830   70.357071
H   46.425117   76.811378   66.518524
H   69.997536   98.401886   66.237976
H   57.654938   64.110283   88.505035
H   22.550888   67.973801   86.791939
H   55.986721   43.037720   16.560047
H   97.392532    7.574051    0.675057
H   91.919029   51.830654   29.897863
H   65.049675   37.597210   77.616104
H   74.170113   10.189617   73.229675
H   37.322842   82.077782    2.153718
H   27.120113   39.955803   61.372688
H   62.755802   35.066509   87.769829
H   91.450241   66.809364   79.721306
H   33.801460   94.271835   55.449284
H   12.693689   85.210556   61.451382
H   15.224885   12.175643   28.209274
H   82.340813   49.723656   89.653679
H   46.448265   55.943542   38.782867
H    6.708050   39.802498   78.024292
H   86.715294   46.600212   23.093481
H   57.060844    2.381338   30.443237
H   86.051865   44.400139   76.812141
H   10.925143   50.818768   48.782425
H   81.107964   12.642189   66.126144
H   43.103283   67.945786   53.221169
H   88.141876   16.009823    4.801280
H   54.397678   94.294868   50.384583
H   47.980476   87.026169   60.439671
H   12.789077   47.661896   42.975571
H   63.966698   28.190836   75.905670
H   26.151613   97.292740   52.769066
H    9.453082   63.929531   18.853470
H   29.410395   17.428989   92.575188
