100
TIME:    5.966, STEP:  5966
H   13.866358   74.909599   93.683975
H   35.707954   28.152464   54.281818
H   82.312836    3.122380   53.313526
H   82.477982   86.850494   13.145629
H   41.734131   50.958633    3.943210
H   35.504543   94.744682   69.580040
H   40.292034   64.191963   57.002048
H   50.970459    4.737439   60.416500
H    6.972267   12.686900   24.548090
H   11.808191    2.046456   41.310764
H   45.312241    6.297590   65.073235
H   28.135216   22.735142   68.262688
H   63.364059    0.813992   32.209892
H   59.680092   86.686989   11.254665
H   53.066750   37.120010   63.994106
H   61.644012   89.920753   37.811249
H   44.356941   76.574684   16.496862
H   28.647009    4.533348   92.713417
H   38.189434   28.634241   77.673492
H   31.782616   79.117226   22.525599
H   10.245811   62.284107   95.316643
H   34.346573   52.003937   11.218231
H    6.088053   46.101128   61.656235
H   64.731560    8.198946   63.987530
H   16.206184   13.025627   80.600136
H   19.349928   50.290436   29.402023
H   47.624405   94.476883   18.340651
H   29.148327   34.912407   63.979897
H   40.896080   90.374420   75.156342
H   29.755432   43.181389   57.668350
H   50.856133   57.037571   37.368004
H   42.454044   87.677979   46.961540
H   90.593987   31.980844   35.261353
H   30.180019   26.974327   20.412909
H   32.473618    7.935436   88.016296
H   91.252075   52.711617    0.669222
H   52.015549   86.046997   78.562843
H   17.407578   49.774441   43.445072
H   93.244690   51.427238   66.162575
H    1.263306   53.666935    7.426474
H   27.517418   60.888489   82.902077
H   97.431885   64.998810   84.534050
H   62.629490   99.276276   32.404846
H   98.395370   12.782003   64.058800
H   39.149441   96.505295   66.637070
H    1.115171   76.709152    7.398726
H   88.344040   49.289688   82.733208
H   56.558033   56.817841   37.720173
H   39.421341   38.345444    6.486926
H   51.002819   21.537687   66.392990
H   43.091938   93.664368   16.318329
H   95.069557   10.138897   82.405251
H   32.625004   56.601624   56.374081
H   38.532219    9.859994   95.080284
H   65.773155   81.436935   51.092731
H    1.026405    6.258070   89.530075
H   74.469536   17.400627   23.403816
H   81.815094   13.472403   59.885117
H   60.801399   90.846794   53.471794
H   65.322952   86.354568   93.923363
H   36.040943    1.126217   49.238926
H   87.172920   72.411392   25.411125
H   79.092766    0.173508   24.363922
H   52.714920   74.262451   65.166077
H   69.125305   84.349899   51.156818
H   34.845024   45.685478   98.939812
H    8.904877   54.620754   55.100967
H   68.253304   58.739353   51.411900
H   54.248119   21.107613   86.055481
H   51.254028   48.215309   89.170441
H   32.586143   89.474106   90.581856
H   82.042862   53.525085   93.424271
H   17.996952   23.203842    8.777992
H   98.876854   71.829918   48.673729
H   49.815105   37.146374   53.661514
H   66.701180   89.937431   94.493713
H    8.628718    9.452436   96.559700
H   12.273860   60.619530   43.920265
H   47.603367   35.994701   84.245110
H    6.947055   84.023109    6.944964
H   27.617533   91.002670   36.562382
H   88.977097   83.161163   87.884819
H   95.236900    6.891515   98.114609
H   60.599792   22.682713   18.515553
H   61.834557   75.708992   69.415619
H   13.981647   28.194466   56.080383
H   65.610374   69.575981    8.025427
H   51.978691   27.667944   33.719635
H   79.494247   61.994804   79.396614
H   38.864132   63.820690   37.487411
H   68.175957   95.578918   59.452801
H   19.722483   44.179245   47.201180
H   67.885590    6.527799   80.364517
H   23.858631   75.123482   29.077150
H   53.443550   15.331234   53.178074
H   86.688705   60.140656   59.297287
H   89.049583   10.057139   94.078949
H   26.761568   81.655716   59.112114
H   24.506409   62.567379   45.322617
H    9.783159   25.538013   23.016636
