100
TIME:    7.149, STEP:  7149
H   33.864090   66.423286   92.600906
H    3.039224   92.257133   28.872173
H    2.655444   88.232018   39.423168
H   82.676544   38.112396   48.302380
H   31.137739   45.781216   71.866653
H   17.155552   93.463051   86.735703
H   78.290314   44.072926   49.514263
H   57.988991    7.081909   51.797043
H   77.891808   98.946075   50.083447
H   79.495003   19.034044   87.630013
H   35.272461   53.898045   51.121178
H   82.983704   82.033157   84.055717
H   87.881645   29.265301   14.658897
H    1.105948   83.040657    1.281147
H   67.437752   31.448906    7.108171
H   14.077538   86.451233   39.611816
H   49.227089   54.820530   24.190027
H   53.945690   46.968613   51.703918
H   56.610630   78.263275   39.998425
H   99.913284   53.993626    3.069780
H   40.044922   44.512207   63.203876
H   47.761932   53.574387   10.474854
H   90.292747   36.479866   27.809774
H   54.813400   22.351046   76.127350
H   73.895210   19.208244   89.336891
H   13.899151   15.348934   18.129820
H   45.612926   45.302124   41.816166
H   29.330177   90.130867    3.079221
H   66.618965   97.705513   19.234919
H   75.117737   13.902266   51.713371
H   97.412590   63.119293   43.772881
H   17.149319   54.989841   37.445305
H   73.923714   45.427162   41.835335
H   80.163811   18.559402   70.575394
H    3.036748   18.390388   60.003891
H   94.088326   45.369400   96.950356
H   65.480209   42.724243   71.778595
H   68.509331   28.122089   26.926605
H   43.311474   25.651312   51.520935
H   89.837547   42.918034    0.502510
H   46.667755    1.484528   10.772242
H   97.735054   69.637955   44.928745
H   72.811554    6.372644   17.854183
H   22.856236   32.638268   79.726555
H   36.533127   49.827770   67.869331
H   85.844292   99.273087   12.204844
H   97.586227   13.624818   94.087379
H   56.623959   69.002365   10.917267
H   74.000923   40.369465   59.299438
H   75.834229   39.545788   83.674294
H   43.010708   79.453552   28.787159
H   52.570187    0.364123    4.749394
H   57.165539   63.461060   87.666084
H   11.139603   90.559845   47.281448
H   71.580826   85.109200   61.156246
H    2.499830    5.013669   49.257965
H   49.466579   83.264915   35.916924
H   93.726730    1.752220   29.414396
H   54.102615   40.837070   62.656151
H   87.258675   77.284470   60.276024
H   10.664715   46.109398   57.002686
H   45.185951   61.400192   71.885727
H   59.407284   19.448067   43.242065
H   33.948437   80.706711   33.044384
H   16.078075   89.865509   61.324284
H   62.173065   86.875450   68.888519
H   13.990736   95.522583   12.215644
H   86.535316   26.396715    7.966140
H   13.206291   36.104782   11.859048
H   75.221153    7.715024   86.679382
H   95.018623    8.983842   76.393654
H   84.559441   14.231130   80.066063
H   40.863434   64.692032   78.449524
H   72.829048   96.959656   78.384491
H    6.846428   38.841702   43.343616
H   94.662407   65.758080   14.892783
H   16.064476    7.035781   17.529867
H   67.853348   83.265068    9.251204
H    4.334957   32.519855   97.440498
H   48.931046   19.579643    5.028492
H   50.768303    3.242043    7.268566
H   77.751411   90.833038   88.918968
H   70.066505   26.674597   10.777304
H   41.989155   23.914677   10.467028
H    4.232634    1.709321   54.736977
H   86.756210   71.650620   38.231567
H   44.620335   83.561928   64.435265
H   71.004601   33.003452   21.453880
H    4.044364   96.127846   69.721199
H   34.270916   15.145771   79.775589
H   16.589283   59.455681   84.435593
H    7.252504   33.152039   69.740334
H   43.718098   42.025379   71.847725
H   38.189758   46.894371    8.845031
H   32.991600    9.365112   80.363098
H   84.399658   13.425956   98.193565
H   95.148674   77.946243   26.043777
H   24.478098   40.191730   35.365829
H   68.151207   67.673317   46.234135
H   83.262917   95.180069    9.053960
