100
TIME:    5.830, STEP:  5830
H   23.063166   87.381523   93.808487
H   39.464058   20.782408   45.706074
H   79.974091   93.337982   54.910389
H   82.455154   92.453522   20.600349
H   42.952271   40.057632    7.630571
H   37.613979   94.892021   56.111416
H   47.419292   55.008205   46.366673
H   61.659790   92.971420   72.903252
H   10.315407   25.762772   33.108856
H   15.523310    0.093536   35.985813
H   57.962631    0.825461   78.173943
H   33.326317   15.918129   77.943474
H   72.042526    9.038506   45.723564
H   66.414101   87.106178    0.904645
H   51.412819   49.268204   70.530975
H   67.112152    1.815807   49.100311
H   55.293221   67.578712    4.116247
H   25.738623   11.150627   97.428261
H   36.071697   22.928492   70.507843
H   35.446373   82.005898   13.266077
H   18.316246   75.822815   99.008415
H   21.308121   51.823395   22.799896
H    7.903979   47.207207   65.547226
H   77.367424    6.571993   74.087509
H   21.069923   23.811455   79.595741
H   19.969893   54.311127   42.190521
H   59.352371    0.129733   15.641893
H   40.623249   28.564384   59.483986
H   37.938927   78.035309   81.585297
H   24.540985   46.547356   46.856583
H   45.503166   44.842686   48.127892
H   33.866886   91.436157   59.551750
H   81.014885   41.931404   23.009398
H   24.433285   39.437950   26.142004
H   35.854111   18.216269   79.734192
H   79.429688   42.059639    1.096927
H   38.971909   91.027466   67.846535
H   23.028568   52.263638   33.848331
H   98.984680   54.390617   79.342140
H   14.072954   66.399101   96.726402
H   36.811966   56.222412   79.697975
H    8.893374   64.465485   77.590446
H   61.458042   98.460724   22.581413
H    7.079348   10.499289   50.761978
H   50.945889    1.871465   54.999371
H    2.870186   74.115158    6.846205
H   87.281540   41.893692   81.427910
H   56.550770   55.417084   29.305258
H   35.446304   49.608566   11.912265
H   48.150463   19.467680   75.905685
H   43.101276    6.794348   14.884686
H   88.460060   22.758678   91.332741
H   29.803776   55.813049   64.273277
H   41.681328   12.079156   89.078819
H   76.601524   69.519089   49.935810
H    0.857004    6.401129   94.159836
H   65.847099   21.324821   10.469013
H   91.942047   26.316305   63.388046
H   50.075752   85.100578   63.912102
H   74.298172   75.901810   97.791527
H   27.461811    7.450634   59.842136
H   91.999825   73.677261   31.565117
H   69.860222    9.454046   33.689850
H   43.375504   73.521606   68.857849
H   63.727669   95.211472   38.491901
H   43.199760   52.446465   90.898430
H   19.816772   49.919399   48.535049
H   77.647713   50.961521   44.910313
H   47.469494   30.879707   94.584534
H   48.499207   41.374428   89.456818
H   36.904625   98.727402   92.212959
H   93.257217   58.038635   83.467484
H   26.864780   29.930588   12.265358
H    1.870754   80.437828   56.754539
H   43.258526   36.952343   43.351944
H   63.486534   81.221611    3.645042
H   96.280876   21.240065   94.154549
H    5.884333   69.512138   36.409096
H   41.082066   36.394176   82.728142
H   13.616453   91.431557   18.661327
H   24.956095   89.595688   28.434069
H   78.769211   82.279205   99.261040
H   86.635216    4.617230   85.163315
H   51.243774   11.044609   30.936634
H   68.456505   84.215218   82.599335
H   17.112080   23.198952   46.636169
H   56.527245   79.464287    1.540335
H   49.791435   38.551098   35.129730
H   76.671982   69.567192   80.508919
H   50.888851   69.415451   32.626266
H   62.610283   88.234802   56.580730
H    9.659861   33.950607   44.610298
H   59.167694    2.446952   69.847427
H   10.714968   66.872505   19.906862
H   55.794746   27.513668   50.052830
H   75.455673   65.511261   66.321823
H   99.844749    2.252589    1.900426
H   27.024080   74.925858   61.842033
H   30.985168   61.981136   56.714401
H    1.335838   29.027973   36.118382
