200
TIME:    0.651, STEP:   651
H   22.100313   61.110973   22.367422
H   31.627544   38.878292    6.582364
H    9.523487   87.127556   65.592155
H   31.696730   81.777626   33.752148
H   10.846451   94.145981   47.749310
H   76.248047   41.659809   53.384357
H    9.313880   55.012512   57.606586
H   12.098907    6.633776   10.483723
H    4.119465   81.344612   37.693077
H   96.393250   69.141777   79.860985
H   26.519140    3.373914    5.949654
H   32.477341   52.993023   32.325466
H   21.261662    0.648159   44.446800
H   84.977783   54.940968   62.070766
H   99.778763   75.108490   41.967335
H   17.320518    9.032120   45.456867
H    3.541750   26.967661   95.477180
H   26.802790    2.925135   36.203255
H   78.700127   14.822356   48.534130
H   91.363831   74.060448   21.538326
H   63.017502   97.275017    7.010896
H   80.879112   64.524132   54.736366
H   82.697662   59.553154   39.274490
H   17.313665   91.806320   90.297318
H   21.110664   29.233789   30.744770
H   18.320871   80.576393   93.382187
H    6.854997   67.043602   65.606903
H    3.942770   87.084061    1.812732
H   28.379120   44.037178   35.931728
H   74.476784   31.774506   84.408722
H   12.824899   68.620247   16.697306
H   24.452156   73.139145    3.722150
H   17.192596   17.829254   78.199379
H   82.823967   64.026321   45.474144
H   28.264854   72.818161   31.092587
H   19.635838   40.550968   84.189407
H   98.060898   65.558159   89.040443
H   12.585400   55.386841   96.688210
H   37.859062   31.683313   53.567440
H   86.141197   37.998356   47.641693
H   80.626602   86.024208   15.166361
H   33.796494   34.488468   27.644033
H   69.301651   78.340393   65.589645
H   36.365646   83.195641   33.447548
H   42.819973   88.834740   59.195686
H   35.276028    3.142289   47.157791
H   87.719284    6.076230    5.190157
H   80.109863   65.544334   32.872330
H    2.975172   13.155356   61.462654
H   47.409485   19.656260   88.324745
H   68.431183   65.294022   11.580544
H    5.427051   42.772076   72.378075
H   63.261662   82.667252   13.300097
H   16.289663   90.856995   87.789520
H   59.802139   67.244423   77.481201
H    0.036926   62.224667   92.106567
H    4.257543   18.300758   45.245823
H   71.898972   68.133812   97.885109
H   19.508652   82.417007   17.066944
H   33.597473   93.681313   59.396477
H   49.088421    7.357685   30.228296
H   97.323204   17.398512   52.216888
H   82.770256   33.720467   71.018936
H   34.084343   65.738708   12.843983
H   77.955254   82.206192   34.736195
H   22.617138   32.528770   40.250961
H   70.822853   14.492544   94.326546
H   95.039833   92.384361   95.408646
H   31.141815   11.407323   56.777710
H   42.871094   48.793449   50.960644
H   58.284863   83.700722   84.275040
H   20.589434   13.018736   41.887840
H   90.538223   32.768551   85.733253
H   21.255268   99.930634   72.537941
H   84.149582    7.524712   48.287514
H   63.702271    4.566501   60.191761
H   93.690414   45.250751   66.332024
H   11.332414   13.454025   33.913414
H   14.655266   48.004333   25.835575
H   62.082634   88.374763   74.770233
H   60.811893   23.155731   95.031845
H   44.708725   61.198853   75.151451
H    9.396204   18.174625   78.254379
H   11.271381   75.299126    7.246866
H   24.272427    3.669995   46.134708
H   36.246212   71.394089   19.227116
H   54.275776    3.640542    2.713584
H   71.913597    3.247385   26.944212
H   78.265732   73.057579   78.650940
H   21.385555    4.469566   50.343853
H   24.014185   38.440819   78.926384
H   81.192551   92.141495    7.335742
H   66.784233   12.226778   84.024330
H   41.597900   79.667725   80.389984
H   35.539017   51.366638   85.057465
H   52.251595   36.898411    9.737365
H   84.880836    0.063480   16.029861
H   95.596359   34.824963   52.484951
H   27.704933   65.660881   54.337772
H   74.350647    4.605699   27.350748
H   28.203581   91.790100   88.293221
H    5.855171   82.874626   63.597504
H   31.699041   22.149525   36.246048
H   41.624825   68.698318    6.483918
H   24.793915   22.071522   38.412613
H    3.694369    6.650433   24.648361
H   85.127747   35.200104   54.346466
H   62.329369   50.054691    2.848921
H   83.241516   34.901669   19.006535
H   17.569517   22.329931    7.548804
H   52.602024   92.495239    1.085019
H    2.496884   73.680603   95.192734
H   49.955662   85.044029   84.995544
H   61.831932   10.536695   64.355377
H   50.134789   99.083115   12.361753
H   97.265427   93.774376   97.475670
H   15.676746   14.230001   88.971420
H   38.685886   47.226326   25.763023
H   34.470852   73.144295   63.226776
H   81.628952   54.877804   64.674744
H   44.844185   24.490612   74.052078
H    0.555335   17.743740   60.277782
H   42.145149    4.488261   36.221733
H   98.021996   52.529034   99.866905
H   64.618233   98.776001   79.219955
H   62.779888   73.597214   17.595760
H   85.170586   51.108963   55.181946
H   66.438675   90.793449   38.473774
H   97.525574   37.606430   75.523987
H   87.666176   22.201303   73.503586
H   65.199844   70.510712   19.117970
H   65.924393   90.127762   19.019375
H   91.095680    2.590871    0.432584
H   80.767540   23.540596   54.765537
H   24.729809   93.938583   37.530678
H   51.411415    1.099370   77.626602
H   69.573158   87.611839   75.798981
H   94.724037   51.388176   76.704376
H   57.056076   50.081337   71.452881
H   43.670578   89.378487   84.037338
H   70.965096   50.982182   28.186386
H   38.317596   53.498676   55.827965
H   41.793308   64.325752   85.521400
H   38.880180   11.650193   84.935127
H   59.620869   56.136269   62.508076
H   60.999241   69.056549   10.161930
H   54.451866   94.977913   44.339058
H   31.429840   58.119705   66.466942
H   76.172699   47.632336   93.858665
H   22.563444   93.161957   74.616417
H   61.733624   68.289978   48.241440
H   51.088490   95.737167   35.272518
H   95.268913   16.470615   89.036980
H   20.774462   10.576692   65.796051
H   29.910240   64.733307   68.188599
H   75.703033   44.548000   66.705925
H   63.613415   73.209557   85.622360
H   51.889408   30.065559   19.353025
H   93.571030    0.185708   87.362564
H   59.071793   40.174194   94.013550
H   57.993137   67.711884   72.488037
H   24.306812   20.926390   31.983410
H   82.910866   16.650423   37.061157
H   26.361103   32.253601   53.614819
H   55.018906   36.034306   13.862910
H   18.994848   51.361938   60.055107
H   67.822601   90.919319   56.578728
H   23.991249   49.632198   65.008102
H   99.657608   26.833626   35.886440
H   45.229031    7.358133   85.775085
H   71.513245   10.521562   35.941582
H   31.964573   50.181194   58.720226
H   45.614056   59.793709   78.859634
H   66.164948   64.707291   83.774879
H   52.335297   91.944763   79.906219
H   13.596717   49.880913   23.681057
H   31.195549   65.760414    4.100551
H    5.372622    9.592819   70.135605
H   65.090767   11.824972   64.327843
H   66.749557   58.863869   92.182877
H   73.914131   99.917709   32.163311
H   27.517624   30.607754   84.620399
H   46.711205   89.734093   14.209480
H   60.431438   25.980888   92.310539
H   90.837944   70.508034   76.703568
H    7.864557   39.691833   86.011208
H   45.663239   97.484634    8.371929
H   70.675667   84.633858   39.907993
H   94.715767   63.006210   71.240662
H   57.087467   56.037571   70.895706
H   67.454063   17.426464   76.366463
H   44.283627   96.098495   19.389368
H   13.229698   27.301863   67.221634
H   27.923302   79.933876   41.596184
H   70.790314   35.897491   20.471861
H   76.331558   11.391959   23.935472
H   12.193242   96.766335   17.339033
H   16.964897   89.237732   35.375668
H    6.432531   12.761906   59.635704
H    3.721058   21.068132   92.038719
