100
TIME:    0.871, STEP:   871
H   58.420082   42.146126   98.348587
H   77.041771   51.970303   32.942593
H   94.729431   36.566799   13.112900
H   81.622803   96.763939   92.420525
H   87.369583   42.572014   42.088295
H   14.509960    0.265685   65.004539
H    7.322074   20.151228   58.566105
H   51.427414   63.953388   28.221596
H   32.217155    2.550216   45.261116
H   51.037498   28.890453   41.798279
H   19.236725    1.289266   55.849686
H   22.596195   67.349449   30.929785
H   87.858017    9.010704   38.558617
H   11.954903    2.391774   23.523357
H   91.095604   92.223450    8.903517
H   66.503159   35.553127   60.739731
H   54.039436   39.597610   52.657494
H   19.756996   52.343979   69.350388
H   58.827156   14.891856    9.251322
H   69.072212   87.270477   75.609413
H   12.590164   69.507294   33.603905
H   45.865040   45.249557   45.091877
H   74.114922   87.538429    7.429058
H   38.116211   47.128025   42.387062
H   98.432732   17.097652   42.989006
H   42.665218    1.657362    7.534693
H   86.971603    6.269818   17.250196
H   59.047653   97.094528   95.563522
H   30.110229   28.115675   15.999767
H   34.390591   69.282608   52.630398
H   50.364414    0.149898   40.488060
H   20.752478   28.447632   18.631218
H   31.709484    4.756162   76.263512
H   14.903951   93.900856   35.056679
H   59.121758   93.079109   77.765884
H   48.285278   52.906628   17.647345
H   63.338299   72.638039   77.096748
H   27.990990   43.012409   83.905388
H   11.562761   61.914711   58.646484
H   81.154625   30.642866    6.562143
H   75.717651   86.067528   62.864544
H   53.340660   50.949951   43.721104
H   18.743269   68.723068   64.385139
H   23.739874   27.368105   65.894905
H   81.102303   97.526779   30.641691
H   66.827370   79.577934   86.733925
H   45.277027   72.727356   35.065865
H   56.285931    4.351202   22.470442
H   90.491264   60.311974    9.728782
H   44.157444   44.006573   22.746216
H   43.478168   85.553871   62.600559
H   47.461433   82.916946   16.881836
H   26.947123   27.059082   52.284416
H   56.519886   92.992424   70.251480
H   71.420319   34.861141    7.797119
H   94.656052   11.616566   62.975906
H   51.468353   64.414635   38.826866
H   61.202087   94.632179   91.119827
H   58.969780   75.570236   44.616543
H    1.542650   94.735092   38.836266
H   14.643806   38.065399   46.485115
H   67.997650   19.838211   55.946381
H   33.312012   47.758141   73.804054
H    2.848762   46.532509    3.490782
H   66.895607   91.278648   76.676262
H   47.838356   98.973183   97.686180
H   17.686689   78.474365    9.113804
H   20.200035   67.350510    7.841437
H    0.311371   87.201828    5.603912
H   48.029999   91.951805   99.899048
H   94.373314   36.139126   51.701145
H    2.149706   22.618889   20.391741
H   50.201233   75.222328   39.415218
H   11.019986   94.260727   51.442482
H    4.167106   29.883028   67.425591
H   46.251118   63.397049   37.322468
H   46.036388   51.053581    6.446138
H   72.901489   93.768028   62.543835
H    3.300518   50.951023   27.400417
H   56.810074   61.519325   45.883698
H   27.926685   38.292553   32.045666
H    6.674511   49.915848   13.945242
H   72.906471   21.794722   12.858221
H   10.086054   86.694191   83.873848
H    9.918674   94.401779   63.318779
H   31.245502   41.048084    2.268029
H   25.326849   40.024132   65.075729
H   69.976547   35.559471   86.687035
H   73.758247   45.675911   21.074123
H   89.328598   73.444519   55.350491
H   59.667454   20.463682   51.855663
H   42.732136   61.013527   50.118271
H   41.168495   53.727638   86.297569
H   31.413240   66.066750   85.545448
H   41.533619   71.711395   36.100304
H   65.862610   61.336113   22.460869
H   93.466782   17.665098   87.096878
H   10.063169   23.653717   42.100075
H   67.219627   40.604832   72.091164
H   93.333481   56.332294   13.796059
