100
TIME:    5.949, STEP:  5949
H   15.015984   76.468590   93.699539
H   36.177467   27.231207   53.209850
H   82.020493    1.899368   53.513134
H   82.475128   87.550873   14.077489
H   41.886398   49.596008    4.404129
H   35.768223   94.763100   67.896538
H   41.182941   63.044010   55.672626
H   52.306625    3.266753   61.977436
H    7.390160   14.321408   25.618177
H   12.272581    1.802341   40.645145
H   46.893539    5.613570   66.710823
H   28.784103   21.883015   69.472786
H   64.448868    1.842053   33.899101
H   60.521843   86.739388    9.960911
H   52.860008   38.638535   64.811218
H   62.327530   91.407631   39.222382
H   45.723976   75.450188   14.949286
H   28.283461    5.360508   93.302773
H   37.924717   27.921022   76.777786
H   32.240585   79.478310   21.368158
H   11.254616   63.976559   95.778114
H   32.716766   51.981369   12.665939
H    6.315044   46.239388   62.142609
H   66.311043    7.995577   65.250031
H   16.814152   14.373856   80.474586
H   19.427423   50.793022   31.000637
H   49.090401   95.183487   18.003302
H   30.582741   34.118904   63.417908
H   40.526436   88.832031   75.959961
H   29.103626   43.602135   56.316879
H   50.187012   55.513210   38.712990
H   41.380650   88.147751   48.535316
H   89.396599   33.224663   33.729858
H   29.461678   28.532280   21.129045
H   32.896179    9.220533   86.981033
H   89.774277   51.380119    0.722685
H   50.385094   86.669556   77.223305
H   18.110226   50.085590   42.245480
H   93.962189   51.797661   67.810020
H    2.864506   55.258480    6.088945
H   28.679203   60.305229   82.501564
H   98.864548   64.932144   83.666100
H   62.483059   99.174332   31.176937
H   99.480957   12.496664   62.396690
H   40.623997   97.176102   65.182358
H    1.334546   76.384903    7.329661
H   88.211227   48.365189   82.570045
H   56.557125   56.642746   36.668308
H   38.924461   39.753334    7.165093
H   50.646275   21.278936   67.582077
H   43.093105   95.305588   16.139149
H   94.243370   11.716370   83.521187
H   32.272350   56.503052   57.361485
H   38.925858   10.137389   94.330101
H   67.126701   79.947205   50.948116
H    1.005232    6.275952   90.108795
H   73.391731   17.891151   21.786980
H   83.080963   15.077890   60.322983
H   59.460693   90.128517   54.776833
H   66.444855   85.047974   94.406883
H   34.968586    1.916769   50.564327
H   87.776283   72.569626   26.180374
H   77.938698    1.333578   25.529663
H   51.547493   74.169846   65.627548
H   68.450607   85.707596   49.573704
H   35.889366   46.530602   97.934639
H   10.268864   54.033085   54.280228
H   69.427605   57.767124   50.599201
H   53.400791   22.329124   87.121613
H   50.909676   47.360199   89.206238
H   33.125954   90.630768   90.785744
H   83.444656   54.089279   92.179672
H   19.105431   24.044685    9.213913
H   99.251167   72.905907   49.683830
H   48.995533   37.122120   52.372818
H   66.299370   88.847954   95.637665
H    7.085217   10.925890   96.259056
H   11.475169   61.731186   42.981369
H   46.788204   36.044636   84.055489
H    7.780716   84.949165    8.409513
H   27.284853   90.826797   35.546314
H   87.701111   83.050919   89.306847
H   94.161690    6.607229   96.495697
H   59.430290   21.227936   20.068188
H   62.662300   76.772270   71.063583
H   14.372952   27.570026   54.899857
H   64.474983   70.812019    7.214788
H   51.705284   29.028299   33.895897
H   79.141464   62.941353   79.535652
H   40.367222   64.520065   36.879768
H   67.480247   94.660904   59.093792
H   18.464655   42.900665   46.877319
H   66.795853    6.017690   79.049881
H   22.215660   74.092110   27.930864
H   53.737450   16.854038   52.787418
H   85.284576   60.811981   60.175354
H   90.398979    9.081571   95.056625
H   26.794382   80.814484   59.453354
H   25.316254   62.494099   46.746590
H    8.727242   25.974258   24.654354
