100
TIME:    7.813, STEP:  7813
H   88.961174    5.531862   91.992996
H   84.700974   28.238834   70.740982
H   14.069254   36.001953   31.626842
H   82.787994   10.754471   11.905016
H   25.187819   99.003746   53.862381
H    6.857665   92.743690   52.494148
H   43.490444   88.908554    1.439932
H    5.799904   64.524590   90.829811
H   61.569420   35.105377    8.285995
H   61.359016   28.568102   13.629475
H   73.508804   80.615692   87.161697
H   57.642708   15.315666   36.790703
H   45.540703   89.075500   48.672054
H   68.228188   80.994026   51.813663
H   75.502693   72.137161   75.173615
H   87.378952   28.375549   84.493439
H   95.831947   98.740982   84.636566
H   68.143982   14.658241   28.689087
H   66.951614    6.116671   74.980179
H   82.020462   39.895176   48.277962
H    0.642234   78.408752   45.184406
H   11.420259   54.455856   53.929153
H   81.427391   31.080030    8.810529
H   93.117447   30.294405   26.812149
H   50.146187   66.551239   94.240700
H   10.768414   95.776230   55.645065
H   88.355286   17.699251   54.992619
H   73.302818   21.124121   25.028055
H   81.056831   57.948383   87.847893
H    0.579006   97.467361    4.500057
H   23.545614   22.662781   91.239388
H   59.074856   36.646152   75.975533
H   20.693815   96.846581    1.653697
H    8.219243   57.707863   42.601395
H   86.511589   68.116295    0.400062
H   51.808262   97.376114   94.863197
H   29.167690   18.406420   24.099028
H   41.066422   15.968956   73.782341
H   15.281783   11.185583   87.174843
H   27.296509   80.756699   52.745796
H    1.288883   24.266111   26.415373
H   41.776924   72.241837   78.827019
H   78.525909   10.355722   65.813423
H   80.456848   43.783287   44.648876
H   78.935448   23.631908   24.689766
H   77.272758   11.935817   14.902445
H    2.775416   49.735970    0.460595
H   56.664486   75.841354   52.001705
H   93.413521   85.377510   32.809753
H   89.775635   49.652294   37.247299
H   42.965115   15.348768   35.787094
H   84.840088   38.750332   61.162048
H   70.937218   67.311157   49.104317
H   95.763153   79.728912   76.582718
H   18.712269   43.299057   66.802231
H    3.326841    4.315206   26.653839
H   91.562607   64.105614   99.068657
H   44.283371   39.046227   12.309598
H    6.468698   68.896309   11.681873
H   43.440865   28.321255   41.390282
H   52.550854   15.231283    5.233806
H   21.619301   55.219772   41.841095
H    4.484630   74.137848   97.709595
H   79.545036   84.323776   15.014852
H   42.434517   36.832882   23.159826
H   21.382954   53.865929    8.149638
H   60.716949   18.478615   44.274334
H   40.668495   64.371208   39.709183
H   46.301826   88.393990   70.216095
H   88.702721   41.070576   85.272354
H   73.934273   63.805740   68.430031
H   29.886158   92.177147   28.736277
H   97.568420   31.849775   61.427143
H   58.210819   54.933895   38.931122
H   38.830643   39.819424   93.688705
H   10.359374    8.312401   70.212563
H   76.369835   49.566177   29.305593
H   99.049271   39.849346   45.923153
H   36.174644   30.569477    4.849396
H   16.368542   83.408043   47.824226
H   63.767448   10.111428   46.955246
H   27.578075   95.139069   33.368908
H   12.063977   37.779087   74.014252
H   87.671165   80.734375   49.819782
H   71.901947   60.169437   90.370369
H   71.477402   96.037949   84.341553
H   88.967384   35.283730   96.097252
H   81.683556   79.870483   14.569298
H   17.826012   59.156776   64.290535
H   75.565155   87.827530    3.514003
H   43.762867   95.311607   98.458054
H   56.381779   83.091858   82.394997
H   86.281937   61.949635   23.195864
H    2.362656   87.178551   53.617352
H   21.509914   49.889313   95.621643
H   39.243378   87.205566   63.897301
H   42.442863   16.051544   87.855690
H   23.196421   73.045601   22.035505
H   36.519615   70.540627   90.616295
H   24.507074   78.138321   45.089581
