100
TIME:    1.436, STEP:  1436
H   20.211519   90.332870   97.831314
H   61.325294   82.603172   68.582695
H    4.438313   77.215828    6.478750
H   81.717636   73.486656   61.452763
H   82.308929   87.859261   26.768394
H    5.748511   99.652367   20.957338
H   77.708870   58.304417    2.749867
H    7.019531   12.834764   76.345726
H   18.328377   48.227890    9.695451
H   35.596901   37.002190   63.924629
H   66.681808   24.022846    1.427061
H    1.030255   95.670143   90.713387
H   51.917618   74.827324   82.402000
H   83.979515    0.649854   66.521416
H   97.966713   41.756756   81.745651
H   43.786255   86.133232   13.840367
H    8.615185   76.961960    4.100186
H   31.831009   24.868164   49.762985
H   67.626884   38.595886   39.016071
H   53.828247   75.318222   14.102152
H   79.062363   13.258591   18.269142
H    0.040764   45.995293   96.981728
H   66.571358   82.943321   91.263779
H   85.621544   53.904301    0.423620
H   78.224602   72.286201   47.157364
H   40.074543   84.820419   54.575737
H   38.250832   82.784866   28.462088
H   11.376640   23.467327   14.238540
H   42.395462   79.377258   89.292381
H   56.055706   55.298996   97.546928
H   72.589912   50.818054   95.779907
H   56.427067   12.838702   66.326363
H   71.508499   63.417625   27.163176
H   38.776146   42.121834   11.255165
H   45.077797   50.369606   12.171646
H   97.408966   97.288651   15.703095
H   17.530437   51.947121   21.616339
H    4.639902   32.671261   23.776272
H   86.163315   49.853630    4.492512
H   27.938616   77.750130   51.016209
H   37.106232    5.455895   76.176071
H    2.561691   76.307167   70.265823
H   23.609945   72.111206    5.197632
H   87.661385   36.837456   21.138830
H   32.093498   75.232315   78.992386
H   59.561123   90.306282   89.002296
H   51.242908    3.203747   39.893745
H   56.316105   10.168367   57.429470
H    7.007869   13.520325   87.191574
H   56.007305   52.606236   83.228966
H   43.435062   31.007399   68.557816
H   74.920006   30.488638   79.791489
H   38.667664   30.335144   19.468582
H   43.437191   83.776344   95.184036
H   26.439835   84.392563   12.591593
H   95.362991   11.022779   43.741974
H   87.287994   48.111916   92.562904
H   19.129894   41.275475   76.567215
H    3.532040   99.442383    1.240425
H   64.256042   38.163937   22.766319
H   50.284924   11.792071    2.434681
H   47.944702   14.578978   30.380165
H   71.636765    9.228653   35.043068
H   41.646988   49.605972   88.152657
H   89.319389   46.153500   29.292742
H   13.129431   70.885262   31.092878
H   72.355515   98.010040   36.393139
H   81.171349   99.662827   34.851704
H   28.472092   46.604523   70.170174
H   59.474663   20.369337   98.709320
H   76.432564   97.694862   44.924870
H   55.561588    3.867046   61.760040
H   13.361687   47.274929   24.927265
H   98.585258   58.507881   17.862846
H   31.407600   30.686956   10.256210
H   59.609692   99.606224   99.305687
H   97.334129    2.083812   16.443468
H   99.446213   56.825279   93.744217
H   30.383974   49.295750   33.700951
H   29.101486   30.745985   97.208595
H   38.983395   44.137737   65.814964
H   49.068050   53.605728   66.700027
H    8.658015   31.224176   66.671783
H   48.954639   35.041973   32.267250
H   82.407867   59.062813    8.548342
H   18.240398   61.803661   41.503548
H   63.061913   98.944016   92.017029
H   79.071930   90.325104   80.815987
H   85.483101   14.218251   16.450996
H   39.376747   50.195663   75.549995
H   82.789558   50.970669   63.787426
H   84.536415    3.507329   60.881859
H   77.420708   70.657089   30.008219
H   86.022591    0.336105   23.641159
H   31.765728   21.101204   49.083855
H   12.529343   39.024406   93.277496
H   48.619217   50.089489   54.603516
H   12.137649   28.464355   33.060730
H   40.304192   43.040325   24.764263
H   28.421860   41.818478   59.378609
