100
TIME:    3.437, STEP:  3437
H   84.892242    6.830951   95.999344
H    5.663304   91.093231   94.804977
H   38.833664   21.175385   82.995781
H   82.053497   91.045036   51.770329
H   64.386154   48.248211   72.513611
H   74.725471   97.484535   19.123377
H   72.836006   93.419746   59.230812
H   49.744873   85.946152   92.619667
H   69.139915   55.839874   83.740318
H   80.917061   65.733589   42.279976
H   80.553665    4.537788    8.680597
H   24.659569   95.969910   48.279335
H   24.635178   53.764145   83.518974
H   84.901070   94.482063   18.796925
H   22.307896   63.020584   85.559090
H   63.330185   11.116562   47.740578
H   47.724098    9.302354   86.272018
H   74.588463   27.559502   80.388855
H   98.800911   22.539202   44.436016
H   99.922508   32.827717   50.339561
H   60.320267   14.052719   63.953827
H   91.888885   48.646652   26.585953
H   39.855125   66.669319   34.014709
H   99.706932   77.903107   51.812763
H    6.657838   13.587524   61.922829
H   30.898508   25.198854   67.020103
H   65.703522   99.604019   68.168434
H   42.537640   16.867233   80.381248
H   85.904755   60.923447   94.704109
H   32.782288    5.773946   56.620087
H   51.323917   30.258253   37.454445
H   82.771553   57.548454   81.083763
H   12.454710   17.015026    7.429059
H   23.322964   58.742195   26.955109
H   95.335876   99.109123   34.017456
H   71.390297   54.480244    8.823007
H    9.452374   78.665024   79.287529
H   21.934868   96.049156   64.979698
H   99.994171    6.531866   11.241571
H   39.466465   90.422699    8.449854
H    0.357737   74.114105   23.319929
H   22.723198   66.114609   64.274353
H   40.845730   84.110611   49.731205
H   59.883255   70.374878   16.785929
H   58.520466   96.286041   50.224422
H   33.745609   28.472309   97.124031
H   68.586227   11.753243   58.456024
H   56.422970   30.770399   81.240028
H   65.493942   47.796593    7.369847
H   97.962334   83.053185   43.275608
H   43.282398   37.823685   89.656006
H   72.164581   44.811516   48.430065
H   80.171104   41.937622    3.253202
H   97.102654   51.130722   83.482269
H   67.134201   59.794495   29.580183
H   97.866684    8.919165   75.623215
H   14.143424   90.373329   82.874687
H   70.130119   52.305527   25.026752
H   61.344521   83.990021   47.623257
H   32.212234   91.966751   65.854134
H   76.509132   18.736355   46.419674
H   76.928764   95.950974   39.841614
H    7.397786   72.748344   97.785057
H   79.052666   60.490929   33.826260
H   68.744667   86.336586   15.641942
H   90.204933   71.409401   49.406067
H   11.811394   67.186188   33.001446
H   42.948753   14.102767   30.511076
H   28.201599    2.825424   44.670536
H    0.020565   21.013353   94.495789
H   12.891621   61.546379   20.919315
H   90.570908   37.457901    8.262355
H   82.892395   48.297184   73.624748
H   54.552410   31.878853   98.939812
H   27.883574   33.538258   61.945957
H    6.908345   27.851740   64.661682
H   79.012703   28.650005   51.834492
H   93.456833   25.983137    4.251420
H   26.329687   43.423176   56.030754
H   30.968483   21.766911   24.820480
H   78.136246   64.839005   85.410522
H   99.205627   66.673782   99.377197
H   35.257862   64.626923   57.257145
H   86.610107    6.270256   49.499413
H   84.975586   33.898289   14.573706
H   72.191162   35.300705   80.458847
H   96.704170   53.455025   87.432663
H   11.281401   30.119675   59.999008
H   27.011642    2.806010    0.080604
H   62.462543   67.869827   47.081108
H   64.678802   59.018353    6.044961
H   32.596390   53.986832   99.016121
H    5.772916   30.644094   84.792931
H   79.427162   21.711700   58.556747
H   97.165428   41.864475   95.066307
H   77.803680   60.007759   89.923256
H   89.789734   64.922981   39.524818
H   19.482801   45.501678    1.041438
H   44.982597   51.665852   57.152977
H   52.695202   90.435036   66.643494
