100
TIME:    2.797, STEP:  2797
H   28.172245   65.522179   96.585281
H   23.466667   56.394897   54.433887
H   27.832685   75.131561   90.505547
H   81.946075   17.413832   86.850159
H   70.118576   96.949402   89.867126
H   84.647346   98.177895   55.742794
H    6.380342   50.205299    9.181983
H    0.047609   30.578005   51.383373
H   84.872337   17.373383   24.025459
H   98.407295   56.544136   17.216501
H   40.084900   78.785980   70.327530
H   49.088280   63.889832   93.835976
H   65.343788   92.484848   47.129616
H   16.589912   96.454720   70.093895
H   14.522251   20.187944   16.322611
H   89.062607   67.093231    0.865608
H   99.188942   66.969193   28.010294
H   60.915489   58.682549    2.576641
H   88.830208   95.689575   10.720194
H   17.163734   46.416584    6.765362
H   98.298782   77.767487   81.326859
H   30.531464   47.797043   81.087906
H   48.400047   71.874397   52.325256
H   59.169907   70.227325   99.343315
H   29.546520   64.344391   57.198311
H   33.833996   44.267109   27.008966
H   20.890011   26.208574   55.469845
H   96.539604   86.994225   59.227802
H   71.988739    2.857998   24.956129
H    8.243251   21.614578    5.742412
H   26.134058   72.867294   88.089211
H   42.361397   75.232216   40.331749
H   67.375580   63.840416   49.772804
H   96.280556   17.394272   53.917542
H   11.245189   47.488434   95.047096
H   15.742600    4.203226   11.025128
H   48.067375    2.102722   28.857847
H   48.385063    7.761003   19.818462
H   27.010185   20.474737   73.262238
H   99.747681   50.337929   58.097301
H   44.096256   52.153851    8.242381
H   80.242729   37.389381   34.205994
H   35.333035   80.272720    3.504336
H    0.752361   59.650238   54.209221
H   14.036940   21.536518   95.457375
H   42.002445   16.265278   94.526375
H   63.585827   76.947845   52.308563
H   56.388790   24.181044   41.640419
H   46.787498    0.802841   32.900131
H   84.544365   73.316856   88.038971
H   43.331226   99.610794   82.907959
H   41.061069    4.198077   90.443596
H   66.899620   38.226685   40.424171
H   11.922947   61.575058   55.240082
H   18.090706    3.704648   24.138929
H   97.065903    9.592438   97.410324
H   73.568535    8.840644   22.005547
H   17.785980   12.745320   41.512161
H   10.870888   56.949001   96.755745
H   74.444885   42.775188   84.057259
H   36.138039   48.497608   96.320297
H   99.643608    1.908382   68.800766
H   63.952839   16.418707   41.673264
H   35.104141   57.009483   51.204189
H   43.340305   37.452206   56.041046
H   29.520943    3.225770   11.565447
H   63.160011   45.061459    2.100744
H   87.157738   77.500366   99.915375
H   96.303246   48.811745   84.809608
H   87.051819   88.823799   95.843445
H   33.215996    5.091472   28.597538
H   43.341515   58.698135   61.406166
H   24.622263   79.954918   90.030998
H   68.638939   72.380768   36.974525
H   97.026878   32.625172   13.429398
H   91.779518   86.834343    7.727518
H   20.904081   84.121719   40.516132
H   63.388470   67.832924   68.909149
H   95.639999   45.303059   48.887199
H   62.355202   56.624592   79.957199
H   65.616714   58.217907   47.158573
H   51.186745   62.494095   52.894264
H   94.765793   53.943329   96.300415
H   42.579281   51.504486    7.954712
H   16.138451   73.931259   76.614693
H   86.917725   11.792061   36.015484
H   53.960030   99.988228   56.915085
H    0.981108   81.359909   66.656227
H   13.728159   38.439217    5.316757
H   19.045860   94.197952   24.204300
H   38.487396   24.462154   92.529251
H   85.240753    5.857208   86.818855
H   64.744949   11.441761   35.299263
H   17.568027   82.891884   15.406396
H    8.231285   99.190582   80.359276
H   24.942352   85.281197   22.980484
H   40.589340   28.194469   76.331459
H   17.134169   40.052460   11.281931
H   75.470879   48.907063   10.759293
H   12.944443    6.859974   28.294806
