200
TIME:    0.540, STEP:   540
H   18.689573   61.479359   20.469391
H   30.638197   37.257820    2.076049
H   11.849925   82.269104   60.124809
H   27.955078   80.480232   36.654770
H   12.024966   91.332703   49.345222
H   79.859070   44.672523   56.669762
H    7.705688   55.091270   55.458096
H    9.611459    1.840944   14.423646
H   99.611855   83.008698   40.400921
H    0.300675   70.696617   84.239265
H   22.650248    1.002825    2.441948
H   32.018341   50.030273   27.036585
H   18.537304   96.964241   48.996147
H   90.224098   54.472652   56.721981
H    5.137841   74.254005   42.240448
H   20.555958   13.605602   47.851372
H   98.320267   21.768982    0.866581
H   29.438438   97.588882   38.179409
H   75.006958   18.840900   46.900108
H   91.010689   75.584801   25.841236
H   61.685387   91.733994   12.096201
H   83.350258   60.281349   59.013870
H   86.021599   60.360214   41.937874
H   14.962564   90.794319   90.645378
H   16.286087   24.769552   34.705547
H   18.412756   75.650192   97.048256
H    4.705395   64.816353   61.143936
H    1.395172   82.505074    1.520657
H   23.704014   47.411079   36.581696
H   79.492752   28.800959   88.248398
H   12.969818   63.982822   16.561596
H   26.470654   70.537582    0.989192
H   19.874611   15.440865   76.843552
H   86.497658   63.905220   43.533981
H   33.591770   77.404770   31.937120
H   23.261681   43.081818   82.916573
H   94.875000   67.953934   88.207130
H   18.075890   52.515553    1.678851
H   41.967194   35.658047   51.100105
H   87.205704   38.454815   51.977631
H   80.593575   91.209549   11.481978
H   28.271563   36.816071   30.935577
H   71.300247   80.890297   61.467960
H   36.612930   77.804512   29.477743
H   39.027298   85.448135   55.190025
H   36.838066    6.031052   45.950588
H   85.627533   11.514446    2.756644
H   82.812202   65.546028   36.862747
H   98.682388   17.367580   61.382626
H   51.381695   19.155340   93.020599
H   71.071701   66.698967   15.979466
H    9.670151   40.861553   69.991615
H   60.267578   85.840446   11.850374
H   17.941681   88.514572   86.145760
H   64.500534   69.713028   81.071053
H    1.459867   64.959465   88.471832
H    4.574323   17.880714   46.436512
H   70.686264   65.553421   99.888786
H   21.850863   80.272751   14.382325
H   36.164738   94.304604   61.448425
H   49.447914    9.523325   33.471474
H   95.327995   17.135561   51.365791
H   79.712234   31.421183   74.763763
H   31.394753   65.580345   10.365639
H   76.170914   80.551422   30.197096
H   26.971495   28.216360   38.255753
H   74.969093   16.833977   92.033241
H   95.661430   92.131996   93.211037
H   27.193529    9.907317   58.182655
H   43.510052   46.858791   50.966572
H   58.333557   81.780884   81.305939
H   23.709064   15.936284   42.664837
H   87.015274   30.849560   89.450134
H   17.638952    2.370484   69.306313
H   82.797989    5.727881   53.506729
H   60.896614    8.485299   60.917099
H   94.159576   41.118484   67.902107
H   15.443615   11.432775   37.709053
H   13.811367   43.059078   28.294018
H   63.755611   88.993820   80.034332
H   56.100796   25.031744   96.679840
H   39.827831   63.195332   78.582939
H    9.829268   16.957048   81.502098
H   14.891085   71.669472    3.629225
H   28.225159    2.496216   49.280380
H   33.119171   75.277802   21.537781
H   49.300880    3.409243    2.459102
H   72.836678    7.378695   22.757534
H   74.868118   72.787430   78.251221
H   21.941521   99.493965   51.565029
H   28.667061   37.482594   79.420105
H   81.965736   91.167603    4.913768
H   61.511021   13.478653   87.185669
H   46.575336   83.655602   77.342125
H   32.726585   52.868126   80.434441
H   56.848366   34.416679   14.956288
H   83.375114    3.902759   11.249426
H   98.647606   33.100327   51.433994
H   30.220116   66.772812   53.944405
H   72.420647    2.802145   27.323648
H   23.251127   88.721069   83.066383
H    1.727878   81.195297   64.209785
H   29.398115   26.206209   34.695019
H   36.291283   68.493378    2.075774
H   24.941057   23.530243   34.813869
H   99.299782   12.084963   29.845346
H   79.869576   33.821835   54.863052
H   62.983570   45.792854    7.141094
H   80.420616   36.302803   13.639118
H   14.003802   23.877573    7.005541
H   51.141609   93.459816    1.006923
H   98.040009   70.889343   93.928368
H   51.883545   83.755951   87.409950
H   62.207939   12.929718   67.217773
H   53.838966   94.460938   16.253822
H    1.795331   97.021248   92.468170
H   20.240498   12.667010   87.677414
H   39.249050   41.762791   27.981804
H   30.255507   68.976883   68.712692
H   78.699654   52.662411   60.533936
H   43.685677   23.752995   77.689354
H    5.344714   20.373249   57.012703
H   39.469063    9.169825   32.928707
H   99.657288   56.523262    4.727748
H   67.939629    1.524207   82.891106
H   58.713253   70.560364   19.738958
H   87.929665   50.590683   59.468765
H   68.866631   89.922874   37.536297
H   96.159584   41.624371   78.053566
H   82.286057   22.727417   71.612541
H   60.719093   74.474030   14.876034
H   70.184959   89.026840   16.401722
H   91.458138   97.190529   99.606750
H   86.210327   20.694714   53.399548
H   19.246372   95.945648   42.631332
H   54.367813    1.241828   79.261894
H   69.389389   87.328987   70.273201
H   93.777245   54.853962   78.458229
H   54.154724   48.529037   71.479134
H   43.610451   94.701866   87.121613
H   65.469803   54.246414   24.600769
H   43.427567   50.126045   53.240376
H   45.361565   62.282764   89.265381
H   43.966438   15.668240   83.095741
H   54.403347   59.817581   58.878422
H   56.932182   67.144333   15.478111
H   51.826591   95.464012   45.133839
H   34.460762   62.251549   67.103783
H   73.205292   52.266792   94.962128
H   19.025040   91.950096   78.770279
H   65.645882   66.404861   49.079411
H   46.415924   98.808739   38.751007
H   90.112366   20.621090   92.933395
H   17.840294    8.028799   68.539040
H   25.508671   61.801785   66.180687
H   72.407890   44.272770   63.290619
H   62.451519   69.880539   84.308029
H   50.311279   31.846512   16.752522
H   98.651360    0.603948   91.479164
H   60.316257   44.703217   89.753830
H   56.902802   72.221428   75.439354
H   29.518618   21.501621   32.945023
H   78.132866   21.490032   37.107311
H   22.286634   28.992756   58.363602
H   56.081718   32.267883   12.772257
H   17.082420   54.893780   60.661884
H   69.733971   92.714668   55.402012
H   23.894283   44.581932   60.418110
H   98.149345   27.194601   36.148544
H   40.163521    8.195786   87.025055
H   73.633789    9.201514   35.950897
H   35.799171   54.304146   58.379364
H   43.469376   64.563614   81.982864
H   67.531784   67.362206   81.199570
H   57.494385   92.779770   85.125435
H   10.169675   49.281334   23.574564
H   32.335850   62.292717   99.457558
H    4.388833    9.486961   68.716263
H   67.929451   14.405469   65.626083
H   72.029747   57.673180   90.617027
H   75.940674   95.939995   34.744125
H   25.278730   30.472256   80.568161
H   51.822445   89.851807   12.010178
H   58.014069   25.775524   88.226967
H   89.402512   75.322449   77.160873
H    5.540818   38.755203   85.455666
H   41.798157   99.385841    5.912428
H   76.008362   79.932076   36.023857
H   97.930458   62.511219   69.972061
H   55.068970   56.641384   69.493301
H   62.151707   21.098885   77.159126
H   45.193581   93.081970   20.803205
H   10.764163   24.661133   64.678505
H   29.862406   75.503937   39.359196
H   74.599503   40.855450   20.834953
H   76.060562   11.119587   25.456226
H   11.455413   93.739647   13.592511
H   20.190809   91.443810   38.506096
H    7.912742   12.451319   64.600014
H    4.878778   24.828838   93.580856
