100
TIME:    2.972, STEP:  2972
H   16.338196   49.473747   96.425064
H   18.598732   65.883499   65.472855
H   30.840765   87.721970   88.452095
H   81.975449   10.203386   77.258484
H   68.551117   10.976407   85.122025
H   81.934334   97.988304   73.073601
H   97.208488   62.022659   22.867210
H   86.292953   45.717205   35.314915
H   80.570503    0.547604   13.009762
H   93.624809   59.056877   24.069796
H   23.806824   85.827530   53.470837
H   42.408554   72.661728   81.379082
H   54.212532   81.897156   29.736607
H    7.925139   95.915321   83.410622
H   16.651138    4.556538    7.910216
H   82.026398   51.787140   86.339211
H   85.116524   78.544891   43.941235
H   64.654991   50.172340   96.509460
H   91.556572    3.030686   19.939363
H   12.449341   42.700878   18.680170
H   87.914032   60.346245   76.576416
H   47.308884   48.029358   66.185028
H   46.063545   70.451134   47.318466
H   42.910522   72.326172   86.347023
H   23.288033   50.465538   58.489395
H   33.031574   39.053371   10.606165
H    5.799545   18.934042   58.942554
H   81.772911   95.162636   65.012749
H   75.793900   18.735132   16.684244
H   14.953351   17.283371   19.653973
H   33.021496   88.560577   74.243767
H   53.411049   70.396324   24.131111
H   79.701630   51.036385   65.538185
H    3.674758    1.356770   46.544876
H    6.894913   34.259827    5.703514
H   30.958569   17.950583   10.423646
H   64.851540   95.693832   42.647213
H   41.152588    4.558159   32.167210
H   19.622833   16.662233   56.303238
H   83.263992   33.954376   71.865883
H   32.136089   58.157993   12.365024
H   64.514732   45.244034   42.427811
H   36.840412   81.322144   16.144588
H   89.577240   62.583549   71.319664
H   98.856972   14.632421   10.432811
H   39.744717   19.603138   95.236671
H   64.953415   86.464752   53.989510
H   56.398136   25.982821   52.468437
H   51.902435   86.308586   25.919245
H   88.213341   75.979134   75.798370
H   43.317875   82.715881   84.753128
H   49.565937   87.959839   78.956017
H   70.528542   39.241394   30.259834
H    7.870785   58.719185   62.962555
H    4.157615   19.042427   25.626307
H   97.284866    9.408522   91.452911
H   84.663582    3.790799   38.649452
H    4.755263   96.218567   37.004715
H   24.672272   64.343033   83.321526
H   62.896019   56.226765   79.079842
H   47.177010   40.359905   82.675125
H   93.432518    0.279182   60.882835
H   75.830193    4.478823   29.671524
H   47.121773   57.961441   46.452412
H   50.287060   23.474991   72.338463
H   18.770363   94.526009   21.912289
H   49.119637   51.110996   10.550105
H   75.069344   87.508606    8.281386
H    5.025044   36.237358   73.834724
H   90.597961   97.625069   95.474945
H   27.658604   93.184486   26.498024
H   28.912470   52.890259   74.218475
H   13.211454   71.297844   85.544914
H   64.788383   61.306755   26.573753
H    5.464449   32.874844   26.696056
H   95.915794   98.049553   95.952118
H   36.793163   68.954483   43.610996
H   71.610291   56.389851   78.572922
H    4.032194   44.789028   50.840515
H   53.772896   47.092999   64.880753
H   69.040024   60.028362   57.618092
H   64.317856   63.636978   38.261086
H    5.837357   56.864624   12.968113
H   54.618275   66.479462   91.970886
H    7.617215   62.985622   59.650352
H   82.890930   18.220112   48.167965
H   65.647881   87.264305   65.259735
H    3.797594   67.348907   64.835091
H   17.360210   28.695562    3.884982
H    3.573277   86.998856   30.460117
H   45.649109   33.911503   96.224930
H   98.188980   19.017466   90.154045
H   75.965607   16.691114   48.833763
H   34.482967   93.506279   27.205730
H    5.205336   83.515991   84.380730
H   39.396622   78.370491   13.941483
H   26.698757   38.237423   66.267143
H   17.776373   41.542480    8.481800
H   67.134239   49.661419   96.100304
H   23.813631    2.368770   11.437030
