100
TIME:    2.520, STEP:  2520
H   46.904694   90.924553   96.838882
H   31.171913   41.375374   36.960773
H   23.071325   55.202744   93.755867
H   81.899582   28.826937    2.032605
H   72.599640   74.746628   97.377945
H   88.941658   98.477989   28.309641
H   20.897625   31.500107   87.520134
H   21.819267    6.614626   76.816383
H   91.681526   44.005722   41.462162
H    5.976450   52.566826    6.368756
H   65.850769   67.640213   97.010590
H   59.661331   50.005173   13.552816
H   82.964836    9.243919   74.660942
H   30.305504   97.308510   49.013920
H   11.152527   44.930450   29.637724
H    0.199938   91.320587   23.859747
H   21.463196   48.648628    2.793401
H   54.996017   72.152992   12.180725
H   84.514763   84.070419   96.126892
H   24.625946   52.298016   87.905983
H   14.736252    5.342757   88.846130
H    3.975204   47.429321    4.676994
H   52.098396   74.127220   60.250290
H   84.906189   66.905151   19.916306
H   39.453606   86.314697   55.154709
H   35.104115   52.519711   52.971581
H   44.776627   37.723644   49.973042
H   19.911905   74.064796   50.070690
H   65.965714   77.726204   38.049828
H   97.622047   28.470261   83.721611
H   15.233052   48.028072   10.005024
H   24.871376   82.886742   65.975044
H   47.863453   84.107368   24.818457
H   84.576866   42.779739   65.587418
H   18.131149   68.427429   78.178398
H   91.658279   82.444023   11.977189
H   21.500134   12.247797    7.031465
H   59.833038   12.830898    0.271838
H   38.703308   26.509386    0.105907
H   25.837934   76.269753   36.302402
H   63.025463   42.650150    1.715006
H    5.137939   24.956589   21.192911
H   32.947071   78.611633   83.495445
H   18.440088   55.007225   27.126551
H   38.064320   32.464611   71.754128
H   45.576107   10.981922   93.402077
H   61.419651   61.883942   49.647865
H   56.373997   21.329088   24.501213
H   38.691284   23.743237   43.950798
H   78.736900   69.102852    7.413356
H   43.352360   26.354048   79.987320
H   27.599424   29.901642    8.627705
H   61.154510   36.620544   56.513046
H   18.336941   66.094521   43.016510
H   40.143433   79.422150   21.788893
H   96.719315    9.883551    6.840057
H   56.007626   16.833778   95.660316
H   38.412201   38.904984   48.646805
H   89.024178   45.245312   18.021090
H   92.725296   21.483267   91.935799
H   18.664118   61.378429   17.917286
H    9.473858    4.487188   81.332886
H   45.163113   35.308632   60.676437
H   16.082830   55.502670   58.725574
H   32.344585   59.576786   30.243547
H   46.537575   16.996223   95.187416
H   85.383919   35.485905   88.727371
H    6.292112   61.658752   86.673172
H   82.498894   68.715202    2.181490
H   81.438782   74.892647   96.426727
H   42.011726   23.939009   31.920769
H   66.180603   67.891174   41.124420
H   42.683319   93.657829   97.131828
H   74.733818   89.908829   53.437462
H   83.670555   32.229977   92.430649
H   85.232384   69.082268   26.365910
H   95.754364    8.129660   35.617405
H   50.374508   85.944267   53.611340
H   82.355530   46.116695   45.795380
H   75.939766   71.710663    3.821002
H   60.196621   55.352215   30.602737
H   30.402023   60.685074   76.056496
H   77.241959   49.319336   69.917450
H   23.523273   27.801241   33.255646
H   29.626858   91.256439    3.466766
H   93.291565    1.617346   16.779842
H   35.459831   20.128403   43.706696
H   96.522186    3.537251   69.538826
H    7.979321   53.862389    7.583053
H   43.536823    5.594131   14.302325
H   27.151428    9.504975   86.679520
H   64.745560   85.027641   81.539726
H   46.971745    3.142124   13.869133
H   90.795082   66.090813   96.729652
H   13.021175   24.003181   73.993889
H    2.063240   96.219856   37.287811
H   62.576553   12.298032   92.261833
H   16.117651   37.693970   15.714138
H   88.666588   47.713024   33.961678
H   95.741806   13.975027   54.973785
