100
TIME:    5.185, STEP:  5185
H   66.682045   46.530373   94.399002
H   57.277931   85.831253    5.035931
H   68.882248   46.933334   62.483746
H   82.346893   19.028454   55.956650
H   48.729477   88.358124   25.117790
H   47.618290   95.590797   92.233971
H   81.223869   11.452921   95.926758
H   12.355522   37.170109   32.124416
H   26.170738   87.776703   73.710518
H   33.146858   90.832283   10.727423
H   17.958954   74.872345   40.304035
H   57.945877   83.588020   23.854830
H   13.201401   48.043480    9.814209
H   98.351128   89.094246   51.821693
H   43.568810    6.882574    1.533182
H   93.045609   58.229996    2.640435
H    7.160239   24.918499   45.399353
H   11.945535   42.533222   19.786940
H   26.026554   95.869064   36.527676
H   52.822281   95.705849   69.351540
H   56.591469   40.034508   16.514851
H   59.471344   50.967148   77.727646
H   16.516808   52.452950   84.000824
H   37.296635   98.855927   21.989574
H   44.138214   74.963776   74.832253
H   22.910166   73.377426    2.844363
H   14.970144   26.942165    2.843461
H   95.046944   98.457993   38.161469
H   23.914192   19.515787   12.074738
H   99.809937   62.510948   95.581642
H   20.117088   87.004517   99.158241
H   93.141396    9.257674   19.262596
H   35.581509   89.123405   64.902702
H   97.179520   98.548515   53.315010
H   51.886597   66.973831   40.458046
H   23.360659   91.539803    3.125429
H   77.107513   14.649544   17.022869
H   49.685406   64.068993   88.332787
H   26.211582   68.444878   41.846970
H   74.823799   26.780693   45.979717
H   80.893921   34.092857   64.502052
H   65.622215   44.563820   46.392941
H   55.902279   94.592850   75.991280
H   48.263111   99.672791   87.697922
H    6.895742   27.318405   99.804466
H   11.193415   61.812763    4.225435
H   82.242477    6.815349   75.237343
H   56.516323   48.773788   89.396370
H   16.594109    3.028913   37.642235
H   34.622746    9.650366   21.018829
H   43.149036   69.065155    8.085151
H   57.113548   82.610397   33.676498
H   16.423687   52.073120    1.731742
H   56.616440   22.604630   60.615990
H   27.957905   12.993264   44.448940
H    0.053584    7.079606   16.117172
H   24.958626   39.935890   49.124138
H   39.969376   87.228172   80.001205
H   99.207527   57.848129   13.427345
H   16.862980   26.324322   16.136848
H   86.774139   37.445545   10.133187
H   14.890688   79.680832   60.751328
H   26.069597   53.468185   77.919434
H   99.083717   70.008041   86.366623
H   38.123917   46.727108   78.425362
H   82.823326   84.511436   52.760994
H   71.566162   27.622047   17.394062
H   22.202522   14.072814   14.075583
H   15.320894   77.225304   35.038620
H   35.434059    8.932024   90.815002
H   57.385658   42.612961   99.948708
H   46.439827   79.444809   36.243065
H   68.919601   61.833168   28.804703
H   16.067768   21.260715   95.078972
H   12.161565   36.032124   94.455780
H   48.236481   39.882683   47.044300
H   37.719250   77.145454   82.747765
H   75.581055   11.685532    0.786700
H   10.153604   38.288746   75.533699
H   45.243164   26.566650   74.228882
H   12.334190   82.922867   89.884605
H   30.362465   78.089554   53.211205
H   45.838272   93.830872   23.736677
H    6.870089   55.850876   89.847595
H   99.862068   24.559784   45.124748
H   31.958614   99.507042    1.845223
H   13.449163   26.361191   70.784317
H   39.415833   90.171371   41.821793
H   63.286972    5.480133   85.784187
H    7.914557   95.949265    9.569521
H   36.214256   53.405750   42.959515
H   61.936390   85.441101   32.322662
H   17.821795   83.097145   19.968586
H   48.378044   27.741041   76.415764
H   66.945641   85.288841   35.230900
H   22.181366   90.982147   99.636719
H   51.041252   65.237206   38.995087
H   25.897505   60.384857   73.062492
H   61.711639   59.200794   10.738319
H   61.269848   45.577602   98.252625
