100
TIME:    8.299, STEP:  8299
H   56.094475   60.963249   91.548050
H   71.278427   54.575947    1.383040
H   22.423120   70.967316   25.922260
H   82.869568   90.730888   85.266426
H   20.832907   37.958698   40.684555
H   99.320679   92.217171    0.623415
H   18.019958   21.725763   39.445774
H   67.601257    6.571535   46.207634
H   49.622612   88.377579   77.695343
H   48.084785   35.546345   32.660133
H   28.302261    0.171077   40.347809
H   39.092155   39.676449    2.197649
H   14.550150   59.657684    0.375687
H   44.164009   79.496040   88.797340
H   81.405647   28.725235   51.801041
H   67.838394   85.868004   44.151642
H   56.750832   30.885143   28.879065
H   78.533478   91.009773   11.842537
H   74.523117   26.506290    0.586760
H   68.924210   29.575693   81.367134
H   71.802299   30.025654   31.995455
H   58.013554   55.101028   12.541733
H   74.938591   27.129278   94.905365
H   47.961494   36.108368   90.717896
H   32.763618   28.008011   97.829933
H    8.476940   81.448959    9.909067
H   46.447205   97.496475   64.636581
H   32.296471   43.808964   41.093521
H   91.624306    2.042508   64.873833
H   19.213711   85.438980   43.134949
H   42.673779   66.242149   52.788612
H   89.761314   23.219898   30.984047
H   54.928112   61.287956   45.436417
H   28.755016   13.168798   22.127344
H   74.416466   31.319237   29.970053
H   94.055908   35.443184   93.335548
H   75.780571    0.606757   62.394070
H   20.979786    7.074665    8.079520
H   94.767540    0.597702   40.077278
H   81.520081   35.258598   90.982605
H   68.073700   40.940475   37.865322
H    0.819277   74.147690    3.639876
H   82.708405   13.271048    0.919617
H   49.424068   51.942619   92.167633
H   36.779106    4.458334   66.279106
H   70.999016   21.203678   16.876894
H    6.574608   76.165779    5.128072
H   56.694149   80.847000   82.072655
H    7.620387   45.126442   13.422873
H   99.979736   57.049526    3.265811
H   42.931744   68.428581   40.911392
H    8.459808   93.653091   29.259239
H   81.015251   70.129150   20.879160
H   84.506012   71.801453   98.029129
H   80.015968   85.889633   70.932816
H    3.932153    3.803981   10.109253
H   22.372902   50.082390   45.291466
H    8.095429   93.148796   99.790794
H   44.799603   89.430580   74.372543
H   11.371226   65.678040   27.567284
H   83.207657   92.629883   67.339607
H    4.370216   50.696152   19.850651
H   37.479610   40.974518   64.383118
H   12.916836   86.971207    1.819197
H   61.726646   98.016174   68.418640
H   91.528358   29.705345   36.886005
H   21.724333   35.280537   67.737839
H    7.097052   92.165520   62.942795
H   70.524445   53.473122   39.734322
H   98.573112   65.479813   84.241562
H   58.500729   30.736881   62.601234
H   89.864975   76.040428   64.358139
H   65.880829    7.809702   48.964939
H   47.513569   24.176510   10.055517
H   62.242233   40.535046   30.537298
H   21.849657   39.460938   37.512016
H   20.509113    7.500219   37.925850
H   21.880171    8.072765   72.765747
H   59.478706   29.141941   10.273106
H   92.535027   56.933739    5.954981
H   73.281883   15.139321   76.002823
H   64.045364   98.290771   92.709892
H   42.804855   45.906773   20.297626
H   21.107704   22.322664    5.432488
H   48.238220   29.768482   43.257973
H   60.293186   13.889155   18.091141
H   21.426302   99.947243   19.271660
H   89.499779   40.979980    9.530281
H   27.913315   32.096626   60.315681
H   32.595463   67.834610   20.886755
H   63.651966   21.553516    8.721824
H   92.340858   19.643524   91.657295
H   17.435230   76.529564   60.778992
H   49.331558   16.663563   86.387642
H   13.105991    6.355044    6.789227
H   79.384949   68.013550   38.794914
H    3.867081   43.941200   59.905647
H   22.258326   97.094948   12.278204
H   13.367682   72.639290   49.909840
H   54.692974   65.664993   98.270538
