200
TIME:    0.129, STEP:   129
H    6.060339   62.843380   13.441545
H   26.974937   31.257597   85.391022
H   20.464235   64.279701   39.880852
H   14.100908   75.676369   47.402317
H   16.388693   80.915970   55.254414
H   93.229614   55.827709   68.835258
H    1.751066   55.382889   47.502872
H    0.401172   84.093140   29.012360
H   82.920624   89.170311   50.427261
H   14.768627   76.453728    0.450706
H    8.324677   92.222969   89.453964
H   30.318802   39.060093    7.453306
H    8.449817   83.324028   65.841026
H    9.650421   52.738621   36.917019
H   24.981030   71.090103   43.251705
H   32.535828   30.539848   56.717510
H   78.985657    2.519867   20.821272
H   39.198040   77.830956   45.496521
H   61.332256   33.720402   40.849812
H   89.703110   81.229027   41.773632
H   56.752960   71.217232   30.925884
H   92.500175   44.571587   74.852196
H   98.329147   63.348518   51.799591
H    6.271099   87.069313   91.936630
H   98.421844    8.239625   49.371128
H   18.752977   57.410500   10.622618
H   96.746422   56.569508   44.618896
H   91.962921   65.550446    0.439203
H    6.393505   59.903633   38.988331
H   98.065392   17.790798    2.465480
H   13.506412   46.811832   16.059103
H   33.944550   60.904770   90.870300
H   29.805313    6.597068   71.823326
H    0.100261   63.456818   36.350136
H   53.315205   94.387619   35.063412
H   36.687099   52.452801   78.203644
H   83.078568   76.824776   85.121620
H   38.405540   41.884026   20.158216
H   57.178383   50.375366   41.964298
H   91.147255   40.144947   68.032318
H   80.471283   10.408960   97.839729
H    7.814380   45.434490   43.122471
H   78.700455   90.331833   46.206600
H   37.528549   57.843250   14.778455
H   24.984543   72.908546   40.358253
H   42.621830   16.727278   41.480675
H   77.882401   31.650311   93.745125
H   92.818161   65.552299   51.638077
H   82.787621   32.964458   61.086304
H   66.089386   17.300585   10.408572
H   80.848755   71.901062   32.267761
H   25.381323   33.787457   61.154758
H   49.183529   97.598816    6.476014
H   24.058611   79.841278   80.059402
H   81.897293   78.853539   94.363205
H    6.728596   75.084579   75.013489
H    5.747263   16.325417   50.845280
H   66.195969   55.999004    7.306853
H   30.523373   72.333206    4.441824
H   45.670555   96.612465   69.046181
H   50.779011   17.542046   45.479565
H   87.942329   16.161932   48.215508
H   68.389290   22.907024   88.629745
H   21.436613   64.993973    1.189213
H   69.564034   74.424301   13.390569
H   43.093845   12.248780   30.868088
H   90.321388   25.503351   83.541817
H   97.963020   91.197563   85.073944
H   12.574292    4.353242   63.384750
H   45.875923   39.695328   50.988522
H   58.513859   74.672295   70.312241
H   35.259911   26.739487   45.541824
H   73.970840   23.744106    3.212456
H    4.249153   11.404504   57.341423
H   77.793442   99.074638   72.831932
H   50.508102   22.995461   63.602810
H   95.896744   25.817930   73.715660
H   30.666548    3.948688   51.763176
H   10.686661   24.747959   37.396900
H   69.948647   91.286003   99.525726
H   38.657001   31.978062    2.781247
H   21.755777   70.586304   91.288719
H   11.432777   12.448724   93.527435
H   28.293770   58.229942   90.233734
H   42.860950   98.150101   60.927868
H   21.539961   89.658035   30.093487
H   30.880323    2.552810    1.516855
H   76.254570   22.675552    7.255521
H   62.292645   71.774590   76.762375
H   24.000095   81.071838   56.086681
H   45.895813   33.934570   81.248207
H   84.828613   87.561569   95.945816
H   41.986702   18.113974   98.891167
H   65.005386   98.421524   66.056808
H   22.312258   58.427689   63.316757
H   73.868843   25.227566   34.280594
H   77.799873   18.118425   93.548683
H    9.946152   26.713861   47.542614
H   39.533089   70.889961   52.487881
H   65.274429   96.123566   27.223307
H    4.913867   77.357361   63.712933
H   86.444695   74.977242   66.476883
H   20.878469   41.226425   28.951601
H   16.542149   67.734543   85.754448
H   25.485882   28.931454   21.488792
H   83.028732   32.207420   49.087543
H   60.400135   28.718512   56.775818
H   65.404976   30.012539   23.033718
H   69.975662   41.490788   93.765175
H    0.801037   29.608030    4.994002
H   45.734127   97.031357    0.717754
H   81.536919   60.553616   89.246796
H   59.021923   78.986580   96.349777
H   63.600182   21.790369   77.816376
H   67.554436   77.346390   30.664629
H   18.568409    9.044607   73.926888
H   37.138683    6.879681   82.886093
H   41.334278   21.532944   36.197289
H   14.646871   53.546200   89.025635
H   67.853333   44.459469   45.202023
H   39.396065   21.021816   91.157104
H   23.078529   30.109539   44.923084
H   29.560308   26.504025   20.736336
H    5.712709   71.313477   22.725985
H   80.237770   11.700377   96.484283
H   43.655712   59.315155   27.674583
H   98.145714   48.671646   75.341583
H   77.856628   86.699394   34.065098
H   91.101730   56.501610   87.419846
H   62.365074   24.675459   64.610565
H   44.128204   89.149017   99.169426
H   85.960571   84.950455    6.709359
H   92.800209   77.194290   96.549461
H    6.363476   10.156968   48.340679
H   98.942604    3.377155   61.517540
H   65.314476    1.769309   85.316895
H   68.708946   86.281670   49.812881
H   90.271553   67.686287   84.952225
H   43.411880   42.781334   71.576340
H   43.387817   14.413628   98.541763
H   45.122364   66.333199   11.324432
H   62.348267   37.638195   43.659302
H   58.573757   54.717934    3.128153
H   62.799339   30.545847   76.285042
H   35.084415   73.448387   45.438892
H   41.873074   60.063091   35.162350
H   42.105980   97.263893   48.076675
H   45.683365   77.550537   69.461815
H   62.217869   69.426315   99.047920
H    5.909687   87.441460   94.148346
H   80.132729   59.424831   52.182167
H   29.114933   10.181046   51.630817
H   71.019203   35.989063    7.361387
H    6.975618   98.594688   78.695511
H    9.210968   50.947624   58.744877
H   60.206955   43.253674   50.645985
H   58.149364   57.554993   79.441452
H   44.467937   38.440849    7.123611
H   17.462057    2.152576    6.721251
H   64.923828   61.472839   73.981354
H   52.865612   88.918930   86.367203
H   48.815701   23.631533   36.505589
H   60.441357   39.409344   37.278206
H    7.200316   16.918816   75.947998
H   60.016998   18.321939    8.733891
H   10.001267   67.970665   62.908600
H   76.811203   99.362312   51.044983
H   23.535248   25.882298   43.422718
H   92.564697   28.531185   37.119038
H   21.407444   11.297367   91.653320
H   81.485535    4.313772   35.985390
H   49.997536   69.569641   57.117252
H   35.528263   82.223770   93.547256
H   72.589470   77.205124   71.672897
H   76.596954   95.871552    4.450315
H   97.480171   47.061272   23.180252
H   36.558044   49.453671   82.264618
H    0.746237    9.095001   63.460857
H   78.440254   23.959955   70.433083
H   91.580719   53.264412   84.819153
H   83.444359   81.211700   44.300114
H   16.988773   29.970547   65.563927
H   70.745117   90.280930    3.873110
H   49.063972   25.014763   73.106712
H   84.087532   93.148796   78.854141
H   96.936638   35.287140   83.398659
H   27.487156    6.425933   96.805862
H   95.753746   62.522903   21.642622
H    9.832857   60.678413   65.274811
H   47.595074   58.877125   64.300613
H   42.517639   34.696766   80.094124
H   48.562870   81.912674   26.038225
H    1.634907   14.883294   55.263508
H   37.042881   59.100719   31.076206
H   88.703796   59.213295   22.179377
H   75.057144   10.111073   31.087126
H    8.723451   82.532722   99.720230
H   32.135410   99.612259   50.097141
H   13.393520   11.301308   82.981377
H    9.165504   38.753235   99.290932
