100
TIME:    4.510, STEP:  4510
H   12.329632    8.431372   95.016983
H   75.920357   49.255005   62.477112
H   57.277489   98.372002   70.405190
H   82.233597   46.838799   92.954231
H   54.775391   34.253891   43.419357
H   58.087917   96.322075   25.386312
H   16.601627   65.875748   43.140881
H   65.409187   78.773895   94.100258
H   42.763527   52.675308   16.198175
H   51.593590   81.140282   84.296509
H   80.745819   47.712086    5.323822
H   83.706596   49.753563   71.902412
H   56.274673   88.861122   76.885742
H   31.771740   91.174782    0.452048
H   35.359962   67.176025   33.980381
H   20.187050   17.268120   58.671814
H   61.439766   80.271805   83.951439
H   97.512215   75.375542   43.186474
H   15.513153   67.555237    0.967920
H   71.008354   10.041185   23.394358
H   96.646935    7.231983   34.835014
H   94.758438   50.071075   35.210098
H   25.529030   57.942680    3.312953
H    0.013599   90.772034   72.121933
H   68.280670   28.493973   69.847206
H   25.987196   93.327911   66.317482
H   73.177238   55.003185   89.452919
H   52.000568   66.951263   15.847217
H    9.236550   58.274380   43.981544
H   73.926834   79.217033   41.920296
H   93.551521   26.476238   52.562096
H   50.521313   27.905716   81.750771
H   88.035622   38.508812    4.093373
H   68.659698   60.408142   81.752434
H   68.664780   17.998863   99.357071
H   64.684219   38.671528    5.248868
H   12.367033   39.370590   63.835682
H   77.584602   76.418312   40.699276
H   54.705654   83.152824    7.260023
H   38.401909   89.972069   92.871643
H   27.024799   10.934018   48.599346
H   26.288040   14.268645   14.685118
H   50.088108   90.545074   27.236216
H   91.365402   88.352081   21.698988
H   65.445518   53.948235   42.043842
H   19.902508   48.938160    1.481478
H   76.969040   70.106895   68.758842
H   56.480274   41.821503   47.631157
H   96.863998   58.930492   64.570648
H   20.465832   99.376747   68.227882
H   43.200535   34.232491    0.969357
H   24.309664   45.245251   77.989258
H    2.422297   48.159241   40.935513
H   72.248924   33.620140   30.829411
H   81.701843   53.834141   38.706867
H   99.209244    7.789640   39.095764
H   82.165970   59.412590   84.925911
H   90.231827   50.973961   97.387070
H   45.970215   29.328068   65.249153
H   61.403957   74.442291   35.335457
H   44.195251   68.834618   62.759560
H   38.845909   85.963638   91.290436
H   80.244820   99.528366   24.206230
H   52.733894   66.331055    4.691074
H   11.331277    0.637336   15.565722
H   24.288521   18.067207   12.849790
H   25.723043    4.286085   84.804611
H   68.829185   75.468765   81.806679
H   81.680252   25.726486   77.373840
H   21.759302   74.983398   92.236359
H   78.819298   88.539246    8.046295
H    2.097551    1.846683   86.823051
H   12.930815   95.224403   46.113319
H   30.926632   63.979298   35.184593
H   79.615852   35.069103   43.286953
H   32.277122   96.621056   92.463974
H   76.434250   35.649403   70.810432
H   43.868328   55.823635   63.511993
H   77.783028   40.271435   68.004631
H   78.346222   63.331165   32.380608
H   99.126022   75.939682   49.540752
H   79.716225   73.681290    9.653887
H    3.141012   82.542419   59.454411
H   60.429596   98.089180   51.497459
H   32.730362   66.782997   10.558442
H   47.495686   74.715706   54.971329
H   68.367424   75.439178   38.597809
H   28.550486   44.212624   48.841026
H   49.279404   43.062218   91.304817
H   67.594894   23.721611   85.438690
H    8.590507   16.959259   28.704752
H   11.991763   34.675552   19.462717
H   74.553291   62.840973   67.769760
H   83.136520   86.797775   30.905146
H   78.615181   45.751793   19.721615
H   66.429092   17.636650   34.501732
H    4.620091   26.500103   77.814590
H   23.420431   54.637634   83.866859
H   93.867249   56.291134   67.278130
H   19.344988   62.896519   63.278584
