100
TIME:    7.642, STEP:  7642
H    0.525365   21.213013   92.149551
H   89.423721   18.972073   59.959057
H   11.129930   23.699764   33.634541
H   82.759293   17.800106   21.278248
H   26.720102   85.297340   58.499023
H    9.509645   92.928947   35.558792
H   52.451923   77.362610   88.067505
H   19.240166   49.731380    6.530097
H   65.772926   51.546280   19.049816
H   66.029579   26.112795    6.933506
H   89.414810   73.735092    3.633751
H   64.169724    6.744596   48.962868
H   56.444771   99.426407   65.664940
H   76.695213   81.521095   38.800014
H   73.425728   87.411728   83.397980
H   94.254333   43.331787   98.687775
H    9.582924   87.429871   69.069763
H   64.488419   22.979095   34.616371
H   64.287567   98.942856   65.970428
H   86.628403   43.525951   36.635475
H   10.789597   95.431519   49.824963
H   95.026321   54.228851   68.491394
H   83.710487   32.470329   13.703204
H    9.005575   28.248751   39.512421
H   56.262276   80.111526   92.977821
H   11.574673    0.817194   71.737007
H    3.100323   24.807508   51.599285
H   87.731987   13.142417   19.375761
H   77.338646   42.433765   95.931358
H   94.021988    1.699696   90.906029
H   16.815699    7.329031    4.768327
H   48.277767   41.370205   91.805870
H    8.648653    9.357557   86.248665
H    0.993890   73.379036   49.805542
H   90.767281   81.063408   89.996933
H   36.943348   83.982819   95.400703
H   12.766580   24.669279   10.624976
H   48.133583   19.098751   61.714790
H   22.500248   14.910944    3.746084
H   43.402313   96.764465   39.291183
H   12.975168   18.399206   22.386686
H   56.187828   71.571259   70.096458
H   77.054291    9.329960   53.462330
H   91.376572   40.913109   27.929928
H   93.769051   30.378132   10.056423
H   79.480186    8.674903   14.207731
H    1.438663   40.436592   98.819084
H   56.654049   74.080109   41.421185
H   88.414192   99.540535   39.631645
H   86.185303   47.049564   49.204201
H   42.976856   31.858164   33.984100
H   76.529617   54.618504   72.387054
H   67.391243   66.319641   59.035133
H   99.723999   82.518204   69.036758
H   32.327988   28.312973   65.348877
H    3.113861    4.495081   32.475082
H   80.721161   69.039711   82.805183
H   57.016525   55.194893   16.714396
H   92.981728   61.670864   24.809677
H   54.724579   15.177144   46.253929
H   41.764202   23.183601   18.566048
H   27.688423   56.811417   49.578835
H   92.875771   85.806427    9.435577
H   67.803398   83.392273   19.657948
H   35.646545   50.491016    7.234905
H   31.887154   62.366875   98.038528
H   74.436401   12.566889   36.018658
H   52.480583   54.591728   31.534393
H   37.778702    0.680956   80.940125
H   85.229805   32.482220   85.635040
H   79.364128   75.440399   70.480904
H   43.967091   97.854881   16.202078
H    8.718073   40.307682   65.811584
H   61.974667   65.755981   49.091553
H   30.593344   39.567631   80.723328
H    6.316595   97.352928   81.719368
H   60.839558   64.367134   26.272989
H   91.015381   51.029995   36.478962
H   27.975065   31.071758    2.941053
H   24.754028   92.723076   62.556068
H   60.419777    8.342355   36.734802
H   14.746453   94.030136   47.674137
H    1.247742   34.919346   57.729401
H   75.906044   66.101685   65.437584
H   80.228073   70.866905    6.946815
H   75.412155   89.757477   72.466843
H   77.546684   47.716820   87.943336
H   78.933403   93.553406   16.342285
H   14.276776   68.677940   65.689095
H   90.683167   94.862076   97.401001
H   36.764851   86.077461   94.846848
H   43.729511   70.230850   79.136040
H   75.320465   56.818539    9.972171
H   85.835762   76.804161   42.087063
H   24.466850   65.206833   91.692108
H   25.119492   93.958313   72.729622
H   56.016197    6.238472   97.689964
H   23.526491   64.583794   25.468630
H   44.665703   69.802208    4.938915
H   13.886045   82.527084   61.563099
