100
TIME:    9.755, STEP:  9755
H   57.631012   27.441574   90.215042
H   31.066154   33.473400   93.188652
H   47.450344   75.717842    8.830824
H   83.113953   30.745420    5.457069
H    7.786093   54.663254    1.208606
H   76.748413   90.639778   44.816353
H   41.710255   20.042093   53.306881
H   53.162537   32.533321   12.521450
H   13.831352   48.388519   86.045143
H    8.313410   56.452351   89.668434
H   92.868622   58.754654    0.096230
H   83.520134   12.658113   98.558006
H   21.705811   71.530678   55.682098
H   72.072357   75.008247   99.598900
H   99.090218   98.668152   81.781761
H    9.294979   58.520981   23.290676
H   39.668007   27.188377   61.424484
H    9.672080   20.160408   61.368332
H   97.206467   87.587082   77.298035
H   29.699062   98.655243   80.498375
H   85.400696   85.077034   92.475174
H   97.601700   57.033890   88.549942
H   55.498894   15.293114   53.248871
H   12.677349   53.526337   82.583496
H   80.690048   12.539665    8.578625
H    1.609021   38.526108   72.893578
H   20.894054   36.972958   93.518417
H    9.443487   11.770131   89.220390
H   23.284374   34.141575   96.048630
H   75.043251   49.403336   58.883003
H   99.975029   96.805908   37.594543
H   81.694046   82.990860   96.194893
H   57.487617   54.759995   76.604393
H   90.273621   79.735191   60.788628
H   38.180870   21.079567   18.554602
H   20.622694   49.488071   88.758888
H   15.430768   47.286385   77.121231
H   60.797718   80.434410   10.825103
H   33.310329   68.872215   98.980888
H   44.381290   98.951767    5.537331
H   68.566345   90.900925   72.168053
H   78.115395   79.860153   77.964348
H   95.238678   22.006935    6.087189
H   56.462269   76.386574   34.525227
H   10.468634   47.001896   90.867783
H   52.210579   48.972515   22.792116
H   17.958485   55.351994   19.109926
H   56.783016   95.843338   72.161301
H   50.176674   24.541393   55.344627
H   30.540396   79.218407    1.462759
H   45.599339   28.069359   52.010162
H   79.221863   58.548286   33.681252
H   11.210899   78.571533   36.317131
H   50.785271   48.044235   62.277351
H   64.087288   13.486089   83.307571
H    5.745600    2.272410   60.543564
H   14.677328    8.069902   83.769066
H   99.678909   55.647820   62.288841
H   59.636745   50.955376   62.594929
H   15.290182   77.590317   86.155190
H   75.057220   24.918917   53.826069
H   52.693901   37.143906   53.973839
H   36.341312   41.641571   64.551071
H   12.897993   94.902603   62.294594
H   19.514881   81.727425    4.008930
H    2.085051   57.323631   22.976587
H    4.906166   85.617462   38.034191
H    6.521161   75.436104   32.548019
H   43.090607   48.854248   48.417019
H   28.143951   38.612247   81.153427
H   12.258614   31.666470   45.138832
H   69.965721   27.696678   71.082306
H   70.948105   35.787945   11.629612
H   15.465839   32.026661   23.544374
H   32.378136   42.678967   40.932178
H   56.274582   32.776432   39.541519
H   52.745064   81.480392   63.752876
H   90.279671   12.873787   53.183342
H   29.301237   24.865208   26.523714
H   21.131088   77.617958   80.519325
H    1.785876   30.202311   63.026497
H   73.302391    7.740869   70.899651
H   34.898422   70.256386   58.960796
H   21.277905   46.915970   72.448235
H   77.344421   38.685875    2.116519
H   26.779148   67.373512   19.200199
H   18.669313   94.083870   88.699150
H   12.915134   24.472639   94.438004
H   58.128910   51.029213   48.407478
H    3.865345    7.927727   72.932693
H   23.238119    0.172742   39.469872
H    0.070114   29.148336   19.398615
H   10.767783   20.212873   73.373711
H   87.278114    4.787161   88.815300
H   87.931885   75.936592   40.244301
H   99.644562   10.518291   63.590469
H   88.296562   27.497276   76.168945
H   19.447901   69.136490   83.043236
H   44.007225   78.926643   27.954029
H   45.131363   28.306408   58.010647
