100
TIME:    1.900, STEP:  1900
H   88.833405   47.781601   97.406509
H   48.418312    7.759371   97.851738
H   12.414129   10.597857    1.031440
H   81.795517   54.370445   36.017582
H   78.152924   25.050892   14.188162
H   98.553474   99.149681   66.909935
H   53.390347   89.634407   39.035332
H   70.550041   52.975338   33.742378
H    6.922371    3.616074   80.489250
H   22.917749   43.664543   82.092125
H   23.521652   42.693012   56.731167
H   83.322784   18.927599   57.684822
H   22.403736   46.754814   36.284500
H   61.004662   99.219521    1.829943
H    3.610512    0.311911   59.442680
H   25.130249   45.548615   75.324966
H   71.310303    7.647041   46.344528
H   41.746658    2.303513   33.677048
H   74.855644   58.062561   63.460041
H   41.328369   65.462753   45.693459
H   51.527939   67.067200    5.675453
H   44.532291   46.607719   57.474304
H   60.376289   79.169640   77.988632
H   42.510948   59.469242   65.964844
H   61.628899   35.486702   50.580582
H   37.946980   70.993027   11.085605
H   98.239326   63.498638   37.669727
H   72.224747   45.125286   29.575758
H   52.484573   21.474817   67.358299
H   73.847939   43.815109   34.432674
H   90.842354   92.427673   59.063099
H   85.724426    0.019608   23.371529
H    4.190475   29.468784   68.963959
H   58.380882   99.599197   91.707718
H   33.544350   15.294881   40.424698
H   37.752636   33.738689   14.108155
H   62.032845   34.954933   58.177860
H   85.460625   24.178707   56.518093
H   65.305405   39.948601   60.021927
H   84.234444   34.311428   87.522354
H    5.398102   21.377150   87.107712
H   60.860016   97.129677   92.065384
H   27.606649   74.893677   38.712349
H   58.031258   44.614922   66.505051
H   91.844688   56.924603   18.698301
H   53.574917   99.156380   90.885597
H   56.142323   28.234995   43.858589
H   56.340885   14.945650   86.139183
H   20.569792   75.090843   68.684250
H   65.738243   59.668613   50.775333
H   43.399662   86.210533   73.450150
H   97.470055   87.433350   49.331287
H   48.293030   33.025574   92.520500
H   32.693172   76.207741   15.658304
H   89.500885   25.068781   16.528883
H   95.943558   10.535139   27.946320
H   16.704187   34.723488   36.693336
H   84.579193   97.455704   64.616043
H   40.125427   19.048159   65.620483
H   33.638218   73.828857    9.569486
H   79.553970   90.213448   66.255669
H   31.476498   10.259245    9.384473
H    3.107955   77.587379    3.210687
H   73.509827   52.130020   75.557198
H    7.735550    9.093760   72.505188
H   84.625343   47.818367   58.528179
H   35.128464   14.051383   58.794506
H   49.119835   26.200603   57.033588
H   51.599167   13.264435   41.068260
H   68.875305   43.707932   97.732269
H   61.698921   66.124794   39.359928
H   17.303705   88.467651   95.730492
H   83.107819   24.324856   13.029194
H   88.375786   29.143431   90.285912
H   53.777153   31.347174   45.431133
H   70.578148   29.344412   68.082542
H   39.462631   61.868690   24.651159
H   21.245785   26.483927   19.369244
H   52.626038   47.936375   38.876488
H    6.345772    5.475416   57.234474
H   48.063595   48.938030   93.547630
H   83.882309   56.636002   27.901011
H   38.015804   38.969604   10.865433
H   80.873299   74.747047   89.885895
H   59.815338   30.038033   63.568756
H    7.560119   78.845863   73.724983
H   94.051414   65.207443   14.142715
H   86.541412   53.175934   75.990852
H   95.112007   88.383568   12.655085
H   98.352432   31.104233   92.138618
H    1.778359   76.025223   73.586258
H   18.868044   38.403591   69.723625
H    7.192032   84.562363   65.904312
H   30.869984   28.481283   54.924957
H   23.742229   79.539429   59.746452
H   50.853806   20.702257   69.311432
H   11.789521   76.717659   27.918701
H   13.841292   32.415039   25.635750
H   18.201294   45.040447   85.896805
H   57.237778   29.899479   14.688496
