200
TIME:    0.927, STEP:   927
H   30.581072   60.194988   27.086851
H   34.087097   42.907574   17.787184
H    3.738733   99.208031   79.186638
H   40.999786   85.003578   26.534817
H    7.916084    1.141185   43.781094
H   67.269287   34.168736   45.215244
H   13.312629   54.816681   62.948780
H   18.283913   18.551060    0.687076
H   15.327602   77.206886   30.959978
H   86.677490   65.274353   68.974449
H   36.139091    9.269639   14.671516
H   33.618637   60.359859   45.476696
H   28.035740    9.808958   33.134911
H   71.932892   56.105427   75.370445
H   86.453812   77.233154   41.288242
H    9.275863   97.660446   39.502964
H   16.532492   39.892441   82.084869
H   20.249285   16.194017   31.289650
H   87.883141    4.830443   52.597103
H   92.241913   70.270164   10.839071
H   66.329788   11.052347   94.366219
H   74.734642   75.073753   44.100410
H   74.432739   57.546410   32.652023
H   23.159651   94.322647   89.431870
H   33.106911   40.334057   20.896351
H   18.092402   92.825325   84.266556
H   12.200058   72.581627   76.704010
H   10.277282   98.469650    2.538949
H   40.003708   35.648018   34.315594
H   62.004475   39.168701   74.861420
H   12.464559   80.151131   17.034746
H   19.433189   79.607895   10.517629
H   10.523804   23.767891   81.570625
H   73.689384   64.327438   50.298332
H   15.019414   61.413860   28.992664
H   10.612163   34.259430   87.345299
H    5.982365   59.601097   91.112465
H   98.933403   62.526260   84.279243
H   27.644249   21.800676   59.702435
H   83.494316   36.863377   36.860443
H   80.708725   73.130928   24.327290
H   47.534164   28.700615   19.459654
H   64.332169   72.000092   75.838150
H   35.750778   96.600609   43.318077
H   52.250408   97.255486   69.155708
H   31.391956   95.959564   50.159485
H   92.920395   92.553757   11.240985
H   73.390533   65.540123   22.950211
H   13.649093    2.681795   61.661644
H   37.532639   20.901789   76.648567
H   61.865570   61.800644    0.642597
H   94.877022   47.522564   78.311974
H   70.707359   74.776146   16.904257
H   12.181699   96.681396   91.876709
H   48.119644   61.106270   68.555084
H   96.499321   55.424267    1.144391
H    3.469919   19.345192   42.285191
H   74.914352   74.549919   92.902992
H   13.684776   87.748672   23.742054
H   27.214005   92.131508   54.294334
H   48.194546    1.972876   22.163942
H    2.283813   18.052336   54.333130
H   90.373985   39.437477   61.707214
H   40.772087   66.132477   19.006351
H   82.391991   86.320755   46.022816
H   11.790192   43.251060   45.212021
H   60.513283    8.670511    0.028816
H   93.494240   93.011864    0.873047
H   40.958694   15.137067   53.284332
H   41.282333   53.603951   50.945904
H   58.163784   88.474373   91.657669
H   12.832514    5.764251   39.955849
H   99.297989   37.540096   76.491280
H   30.247189   93.864075   80.573341
H   87.510300   11.992509   35.310005
H   70.678497   94.822937   58.388218
H   92.523849   55.525578   62.427605
H    1.109897   18.479836   24.475609
H   16.758080   60.295097   19.707920
H   57.922798   86.835487   61.681122
H   72.525970   18.491051   90.934128
H   56.845001   56.234634   66.619102
H    8.319395   21.202114   70.178970
H    2.271122   84.324211   16.242189
H   14.444012    6.588637   38.313038
H   44.021557   61.737289   13.481793
H   66.645561    4.215665    3.346351
H   69.618370   92.975479   37.354061
H   86.713852   73.729301   79.644836
H   20.003155   16.841400   47.307415
H   12.444791   40.823433   77.698753
H   79.270035   94.563065   13.358067
H   79.896507    9.114008   76.163704
H   29.221455   69.751923   87.968445
H   42.532089   47.633209   96.552551
H   40.821785   43.069202   96.760376
H   88.624794   90.516182   27.916611
H   97.745911   40.791485   57.117970
H   21.450966   62.896080   55.315876
H   79.149567    9.090177   27.418131
H   40.517788   99.421204    1.289752
H   16.117630   87.050255   62.075073
H   37.420265   12.062737   40.102661
H   54.886604   69.207901   17.444681
H   24.428047   18.444431   47.360840
H   14.621490   93.137810   11.726215
H   88.465591   36.948940   51.042145
H   60.702705   60.651691   92.176979
H   90.255646   31.417767   32.352543
H   26.435621   18.481741    8.899618
H   56.233326   90.096832    1.279206
H   13.578471   80.621033   98.336563
H   45.162006   88.246819   78.992157
H   60.896996    4.586553   57.239071
H   40.924400   10.575832    2.684160
H   86.001968   85.701073    9.927028
H    4.328796   18.116501   92.188950
H   37.285587   60.811333   20.246056
H   44.952038   83.506508   49.587021
H   88.912613   60.386349   74.971680
H   47.724800   26.324688   65.008041
H   88.647484   11.205502   68.395790
H   48.799202   92.847794   44.409798
H   93.955864   42.597439   87.780113
H   56.359627   91.942963   70.091690
H   72.890587   81.149330   12.267122
H   78.310173   52.397659   44.522827
H   60.401596   92.958122   40.804798
H    0.922120   27.615875   69.234222
H    1.043766   20.893129   78.205643
H   76.341171   60.655975   29.665485
H   55.330551   92.865189   25.528133
H   90.194435   16.018475    2.486333
H   67.234123   30.616844   58.162052
H   38.364300   88.948044   24.847969
H   44.060371    0.745150   73.560471
H   70.030098   88.315147   89.538757
H   97.078224   42.770546   72.343445
H   64.270248   53.941109   71.387604
H   43.820084   76.141975   76.368332
H   84.629066   42.865711   37.101974
H   25.611990   61.884678   62.261971
H   32.920887   69.404732   76.212044
H   26.233269    1.659389   89.508736
H   72.594170   46.982735   71.533157
H   71.112671   73.811249   96.943001
H   60.979576   93.769234   42.362846
H   23.893494   47.845932   64.883446
H   83.551117   36.108822   91.114922
H   31.361639   96.175232   64.287895
H   52.006283   72.977295   46.157837
H   62.706760   88.099747   26.623302
H    8.090703    6.150517   79.348595
H   28.070230   16.911955   58.974869
H   40.854683   72.023285   73.181244
H   83.896362   45.232357   75.198265
H   66.502457   81.487114   88.890427
H   55.813404   25.637245   25.819143
H   80.938858   99.145538   77.126694
H   55.977448   28.912697    4.604924
H   60.704243   56.498962   65.149628
H   11.347729   19.496084   29.592373
H   94.791298    4.616838   36.946396
H   36.491982   40.361649   41.807034
H   52.376236   45.399464   16.574749
H   23.750074   42.580063   58.546364
H   63.070007   86.455208   59.504616
H   24.232353   62.189617   76.421066
H    3.408594   25.936066   35.234722
H   57.824352    5.275320   82.667053
H   66.240540   13.803842   35.918419
H   22.429379   39.929531   59.567776
H   50.946774   47.933281   71.093765
H   62.765942   58.106823   90.178352
H   39.507294   89.868530   66.928711
H   22.113548   51.377453   23.960613
H   28.360207   74.383308   15.645123
H    7.818803    9.856033   73.664780
H   58.031525    5.408602   61.100731
H   53.621273   61.824501   96.076340
H   68.875160    9.808845   25.746664
H   33.084499   30.944668   94.696236
H   34.002174   89.441399   19.678017
H   66.441765   26.491524    2.464229
H   94.407127   58.537056   75.566483
H   13.642373   42.020752   87.392555
H   55.273712   92.757309   14.487446
H   57.415993   96.324776   49.565845
H   86.722481   64.236794   74.395020
H   62.106434   54.536198   74.382767
H   80.637932    8.295040   74.395515
H   42.021038    3.599200   15.873890
H   19.360363   33.868153   73.545090
H   23.101746   90.948860   47.158424
H   61.318516   23.569956   19.569036
H   77.005386   12.069209   20.154139
H   14.027844    4.292569   26.654707
H    8.943479   83.752350   27.591900
H    2.752031   13.534176   47.292015
H    0.842352   11.717309   88.204216
