100
TIME:    1.592, STEP:  1592
H    9.662130   76.026840   97.688492
H   56.985878   91.060631   78.423149
H    7.119861   88.439278    4.647258
H   81.743820   67.059654   52.901279
H   80.911652    0.363349   22.538494
H    3.329331   99.483360   36.406712
H   69.532295   68.838203   14.949333
H   94.758232   26.330349   62.022865
H   14.493599   33.229172   99.875542
H   31.333750   39.242119   70.032677
H   52.171066   30.299885   86.399841
H   95.076752    3.489538   79.608955
H   41.995041   65.389153   66.896263
H   76.255211    0.168902   78.392326
H   99.863869   27.823074   74.247482
H   37.513977   72.488945    0.891364
H   96.073059   87.278488   18.303152
H   35.164719   17.281921   44.354782
H   70.057243   45.140717   47.234303
H   49.625702   72.004745   24.723368
H   69.805099   97.728088   14.035057
H   14.999312   46.201195   83.699257
H   64.488533   81.674583   86.800583
H   71.127464   55.775272   88.838318
H   72.645012   59.913429   48.308273
H   39.359241   80.171555   39.954308
H   24.798485   76.300735   31.557760
H   98.214127   30.748882   19.395018
H   45.787491   93.530945   81.917992
H   62.037579   51.438034    9.948256
H   78.726509   64.807495   83.435303
H   66.277039    8.528743   51.884651
H   82.496292   52.003746   41.216888
H   45.367393   27.825325    4.683333
H   41.200172   38.577248   21.670517
H   10.972783    9.543337   15.166764
H   32.492836   46.234230   33.908573
H   98.192131   29.816006   34.784298
H   79.150742   46.523491   89.541107
H   13.245180   63.146481   63.290592
H   26.445740   10.808684   79.851364
H   88.541290   83.307838   77.594986
H   24.953665   73.046692   16.465466
H   77.699532   39.452293   36.391483
H   18.561687   69.076675   92.341507
H   57.548519   93.281746   89.635475
H   52.890125   11.619336   41.226753
H   56.324436   11.774523   67.081871
H   11.567502    0.600794   80.969284
H   59.279125   54.980656   72.317345
H   43.423161   15.946196   70.202652
H   82.501488   16.013006   69.551132
H   41.903778   31.239685   10.408295
H   39.824978   81.231728    2.067906
H   14.020296   98.067795   13.915377
H   95.558182   10.858831   38.431366
H   97.178436   43.610634    7.399889
H    7.513582   26.543022   72.549149
H   15.834991    6.033944   89.264709
H   53.962101   50.155056   18.329308
H   60.125378    4.537593   90.271172
H   42.407959   13.126654   23.321175
H   82.217514   98.590370   24.340919
H   52.359848   50.454575   83.917976
H   95.510735   33.693447   43.821224
H    3.546289   63.130013   40.316814
H   59.839523    3.403483   43.924633
H   70.395409    8.584928   42.309406
H   36.247574   35.395355   60.386406
H   62.634605   28.215635   98.380829
H   71.479012   87.080788   43.053898
H   42.699253   98.689514   73.181297
H    3.189831   39.558956   20.927052
H   95.152763   48.635292    8.591301
H   38.928429   30.908926   22.082489
H   63.298077    9.604467   88.808250
H   11.497885   88.563217   19.203024
H    6.775385   46.624199    2.359040
H   37.861908   48.838718   35.441002
H   21.450974   22.249846   83.769020
H   42.036221   45.751629   75.138878
H   60.773525   54.624527   53.655594
H   18.528469   33.828125   81.530060
H   59.686543   48.391094   18.018349
H   74.812103   49.304482   93.425995
H   14.649609   67.533669   52.336617
H   73.480797   87.601547   99.455688
H   81.583221   77.835297   79.194954
H   88.720406    5.532575   15.174715
H   25.583965   43.776993   81.127205
H   89.173714   59.393612   67.081863
H   96.078835   15.239584   63.853752
H   87.430168   75.332138   42.076797
H    1.099929    9.798772   34.159302
H   29.068172    7.127245   52.668694
H   25.414291   32.864006   85.219940
H   36.236526   59.042065   45.631897
H   12.710425   29.792603   30.564568
H   32.872673   43.712780   11.697216
H   38.109970   37.811123   44.353706
