100
TIME:    0.074, STEP:    74
H   12.318307   15.235032   99.078262
H   99.211739    8.756920   82.668427
H   81.035858   79.227776   22.470985
H   81.489029   29.602064   36.107002
H   94.508240   78.688950   63.698845
H   26.868835    1.133112   86.073997
H   49.091396   66.335747   96.239380
H   14.070044   95.004425    1.398935
H   51.808937   79.178543   95.428566
H   72.818306   17.449753   10.586420
H   93.371735   69.220078   32.621712
H   53.017574   27.399727   87.661980
H   38.555214   57.230301   17.774147
H   51.418018    4.849108   62.872726
H   81.403084   63.411110   47.216000
H   98.546844    5.265481   26.897488
H   18.116533   86.890846   80.092308
H    2.726137   91.101898   96.980759
H   46.416595   81.458038   67.259735
H   90.646278    3.980768   21.236444
H   59.885284   48.851006   55.232697
H   69.443398   44.197609   12.954340
H   84.756020   94.020378   30.233879
H   12.166172   37.569279    1.578243
H   26.936037   80.304207   37.104691
H   46.314777   25.409393   82.234428
H   55.698383   39.401203    1.434800
H   26.296654   59.893246   69.222244
H   12.780158   55.805721   53.674042
H    3.831554   89.008163   89.271721
H   19.012697   28.678202    3.556288
H   70.429779   50.465584   92.413551
H   75.570984   63.068001    4.463459
H   81.228767   66.941040   68.633904
H   78.932442   53.326370   29.234673
H   78.989067   90.298943   20.389708
H   86.897713    1.823973   14.295361
H   60.929749   57.599834   27.663507
H   47.394352   78.928307   35.034286
H   56.222775    5.255148   43.856438
H   30.184544   58.718037   44.081486
H   24.970474   15.177656    6.276996
H   11.879153   63.943691    6.818696
H   74.634232   14.012006   87.966812
H   50.236000   28.972248   62.439865
H   77.006340   64.595268   83.608482
H   36.861439   29.732471   28.255560
H   56.243366   96.143814   73.156647
H   67.190300   26.320568   41.522552
H   27.441801   31.875721   78.488907
H   43.533825   62.500725   54.206051
H    8.729661   56.872978   69.205032
H   10.414410   22.437805   98.571693
H   74.970978    5.994921   35.081135
H   34.868568   64.993011    1.034108
H   93.658829   12.454609   90.107666
H    0.943972   87.411568   63.025459
H   20.549753   69.898125   11.648897
H   96.113930   41.895721    5.802035
H   54.139465   33.475777   61.495934
H   64.368729   75.128647    8.626769
H   96.284729   27.256577   92.005859
H   79.252846    2.106882   28.481415
H   48.121170   42.197021   25.131735
H   35.258659   54.934666    2.452290
H   96.799568   38.594410   50.561321
H   81.631248   50.919849   70.634995
H   75.254036   21.769444   69.740227
H   60.592155   44.469154   55.592434
H   31.885910   51.866470    1.575155
H   19.683027   90.369286   61.259892
H   67.864464   49.069618   62.040699
H    2.166375   14.646854   59.852207
H   28.562164   44.697277   98.810570
H   65.737961   28.748991    7.007427
H   27.407255   12.314871   90.950577
H   73.674316   20.130333   92.341248
H   35.456985   45.881458   18.526707
H   65.101555   53.283108   18.513580
H   95.896347    4.923572   14.545895
H   12.330235   30.046503   84.411591
H   46.876469   44.710831   80.592712
H   22.478184    8.492492   36.947906
H   55.261208   18.493870   56.671120
H   48.727829   44.256760   40.578728
H   49.595676   11.767039   46.923733
H   72.097008   97.972511   27.071804
H   57.146423   99.369576   94.968849
H   57.218941   90.052330   27.595596
H   59.792274    6.242360   26.857218
H   27.050966   77.426575   35.024487
H   83.761879    1.072268   34.934944
H   90.032295   29.848742   24.639643
H   54.380867   17.720839   31.808495
H   55.312321   43.101559   17.787815
H    0.033646   92.809441   63.626717
H   56.728477   71.927116   32.933083
H    7.137091   16.867737   54.851151
H    5.186855   37.169277   38.853001
H   43.837170   76.801964   90.558578
