100
TIME:    1.785, STEP:  1785
H   96.610504   58.327713   97.511795
H   51.617241    1.524158   90.597557
H   10.437391    2.324588    2.381490
H   81.776215   59.108299   42.321560
H   79.182968   15.833135   17.306061
H    0.336411   99.274269   55.520885
H   59.417072   81.869591   30.042183
H   79.588814   43.026722   44.301651
H    9.749290   14.673038   87.727638
H   26.060087   42.013313   77.589409
H   34.218674   38.065708   67.808395
H   87.711441   13.163319   65.870781
H   29.718895   53.712440   47.714134
H   66.698860   99.573982   93.078773
H    2.211584   10.583979   64.970901
H   29.754044   55.607780   84.870865
H   80.556137    0.041885   35.874748
H   39.289116    7.896061   37.663864
H   73.064034   53.237846   57.401730
H   44.426399   67.905380   37.863716
H   58.352203   78.515259    8.796734
H   33.505375   46.455933   67.266457
H   61.911705   80.104927   81.278809
H   53.195686   58.090000   74.505264
H   65.742058   44.607071   49.732155
H   38.474285   74.420074   21.864561
H    8.155857   68.278702   35.387661
H   81.928574   39.757473   25.774508
H   49.984039   11.041345   72.794548
H   69.438225   46.661331   25.290691
H   86.318581   82.114944   68.162811
H   78.463226    3.196715   34.017662
H   96.090164   37.882729   58.603851
H   53.521950   10.138100   96.552612
H   36.402855   23.987984   33.422325
H   27.753822   24.704657   14.503415
H   51.003296   39.166359   49.116276
H   90.214272   26.283543   48.403202
H   70.474930   42.403511   71.043900
H   95.066582   45.077763   78.474808
H   13.256798   17.431131   84.398361
H   71.195557   91.968925   86.662476
H   26.616087   74.204056   30.406105
H   65.374931   42.687317   55.261227
H    1.820416   61.461536    8.857164
H   55.058567   96.962929   90.418831
H   54.928028   22.031038   42.875923
H   56.334743   13.761625   79.023628
H   17.208548   84.615685   73.271194
H   63.326954   57.918240   58.818279
H   43.408436   97.312904   72.237610
H   91.881142   98.104050   56.881145
H   45.907433   32.358765   99.199120
H   35.356022   78.083580   10.583975
H   98.655472   14.987242   15.553135
H   95.799667   10.655998   31.861191
H    9.413836   38.041740   25.755911
H   93.142426    8.316169   67.578079
H   31.055946   14.188869   74.448685
H   41.226681   64.990128   12.840140
H   72.299789   95.561958   75.222496
H   35.558014   11.329868   14.587996
H   95.307800   85.429405   11.100305
H   65.613403   51.504448   78.678917
H    3.170879   18.278782   61.795704
H   91.690010   53.535378   51.728481
H   44.354996   10.075753   53.242443
H   57.063637   19.623322   51.535923
H   45.867241   21.527603   48.281204
H   66.544983   37.923363   97.974426
H   65.350578   73.949272   40.739170
H   26.785994   92.284256   87.311150
H   90.605911   30.012913   15.978069
H   90.906151   36.421127   97.120705
H   48.232986   31.183542   36.713482
H   67.860023   21.973978   75.821037
H   29.021051   71.835922   22.616953
H   15.842875   34.003632   13.017989
H   47.113457   48.273289   37.593758
H   11.985760   11.738596   67.141853
H   45.813114   47.748302   86.674232
H   75.254150   55.884964   37.517288
H   30.739689   37.049896   99.912415
H   72.962837   64.906349    0.389896
H   65.414780   37.231674   74.716751
H   10.207157   74.622154   65.739067
H   86.370827   73.568878    8.658869
H   84.690140   62.383163   77.187599
H   92.725533   94.786690   13.595856
H    8.520048   35.835945   88.027214
H   97.072060   69.815125   71.157669
H   10.359064   29.754488   67.531929
H   99.813667   81.116013   57.007675
H   19.754452   21.505671   47.171547
H   25.730812   89.839874   57.103783
H   41.355286   25.243139   75.251297
H   20.917450   70.118004   34.532394
H   13.419053   31.435883   27.476055
H   23.679218   44.544727   95.530441
H   50.095901   32.853306   25.764957
