100
TIME:    3.120, STEP:  3120
H    6.329722   35.901360   96.289566
H   14.481745   73.907242   74.808670
H   33.384743   98.369858   86.715462
H   82.000290    4.105410   69.146667
H   67.225494   22.839260   81.109024
H   79.639900   97.827965   87.729973
H   89.451225   72.015862   34.441002
H   74.660446   58.520641   21.725590
H   76.932381   86.318039    3.693424
H   89.580193   61.181938   29.865725
H   10.040222   91.782669   39.215313
H   36.759415   80.080246   70.844109
H   44.798805   72.942993   15.026619
H    0.597230   95.459145   94.672768
H   18.451569   91.336594    0.795837
H   76.075775   38.842560   74.054054
H   73.215279   88.334625   57.414257
H   67.816612   42.975136   91.378601
H   93.862297    9.239772   27.736147
H    8.462311   39.558453   28.756708
H   79.131500   45.611961   72.558899
H   61.497787   48.225830   53.581451
H   44.087532   69.247459   43.084152
H   29.159729   74.101196   75.355873
H   17.995140   38.728020   59.581703
H   32.352955   34.644039   96.734016
H   93.037613   12.781718   61.879475
H   69.284508    2.070759   69.904228
H   79.011978   32.162430    9.688593
H   20.627949   13.620223   31.419155
H   38.846783    1.832500   62.534477
H   62.755898   66.306541   10.430000
H   90.125946   40.207832   78.871193
H    9.928275   87.793434   40.309708
H    3.215733   23.072205   14.715263
H   43.826412   29.576880    9.914964
H   79.047218   90.273911   54.309078
H   35.035980    1.849467   42.610722
H   13.375363   13.437944   41.960770
H   69.323502   20.099058   83.509682
H   22.021719   63.235783   15.851558
H   51.213341   51.886826   49.381119
H   38.115223   82.209656   26.834820
H   80.126251   65.063812   85.790855
H   86.018532    8.793303   23.097925
H   37.835323   22.426014   95.837379
H   66.109665   94.513336   55.411110
H   56.406040   27.506609   61.625847
H   56.228210   74.050529   20.015482
H   91.316246   78.230659   65.446320
H   43.306583   68.427612   86.313614
H   56.758625   74.227112   69.240807
H   73.597572   40.099548   21.664177
H    4.443813   56.303932   69.493561
H   92.373856   32.012978   26.884745
H   97.470047    9.252920   86.414642
H   94.046822   99.520164   52.725441
H   93.734856   82.241943   33.192703
H   36.344299   70.596268   71.960014
H   53.129997   67.602600   74.870369
H   56.512825   33.477734   71.135208
H   88.179710   98.901566   54.185844
H   85.877373   94.379570   19.522720
H   57.285255   58.766525   42.433765
H   56.162029   11.654376   86.120872
H    9.678640   87.168465   30.662640
H   37.245491   56.227177   17.695932
H   64.846016   95.972717   15.356643
H   12.401558   25.603020   64.553108
H   93.596985    5.068914   95.163300
H   22.958515   83.114723   24.722435
H   16.709177   47.978455   85.053802
H    3.561233   63.976437   81.750969
H   61.531055   51.940453   17.777672
H   12.599883   33.085995   37.915562
H   99.413902    7.534972   85.993011
H   50.231182   56.126640   46.228367
H   78.563599   46.711903   86.745712
H   11.129107   44.354305   52.492462
H   46.514717   39.031994   52.130386
H   71.935165   61.559490   66.463852
H   75.421921   64.603531   25.885317
H   15.201118   59.335205   27.064365
H   64.799911   79.144012   78.452698
H    0.410588   53.727718   45.303368
H   79.485413   23.656406   58.445492
H   75.532463   76.503502   72.316925
H    6.179537   55.499603   63.295448
H   20.432064   20.455587    2.674109
H   90.488464   80.910477   35.750351
H   51.705872   41.902500   99.350418
H    9.140182   30.147501   92.974663
H   85.452728   21.132063   60.278831
H   48.788174    2.483198   37.184303
H    2.646257   70.259766   87.781731
H   51.620804   72.526009    6.296852
H   14.951615   46.730892   57.755608
H   18.319494   42.802612    6.113689
H   60.083824   50.299389   83.704094
H   33.006046   98.570930   97.179703
