100
TIME:    3.123, STEP:  3123
H    6.126850   35.626244   96.286819
H   14.398289   74.069885   74.997910
H   33.436310   98.585693   86.680260
H   82.000793    3.981802   68.982239
H   67.198624   23.079723   81.027679
H   79.593391   97.824715   88.027061
H   89.293983   72.218422   34.675606
H   74.424652   58.780170   21.450130
H   76.858635   86.029602    3.504580
H   89.498207   61.225014   29.983210
H    9.761169   91.903381   38.926350
H   36.644905   80.230621   70.630562
H   44.607986   72.761490   14.728449
H    0.448691   95.449898   94.901054
H   18.488064   91.068619    0.651626
H   75.955154   38.580170   73.805031
H   72.974037   88.533066   57.687359
H   67.880699   42.829247   91.274597
H   93.909035    9.365634   27.894190
H    8.381493   39.494755   28.960962
H   78.953476   45.313293   72.477463
H   61.785400   48.229813   53.325974
H   44.047478   69.223061   42.998322
H   28.880997   74.137177   75.133080
H   17.887852   38.490097   59.603859
H   32.339199   34.554661   96.452812
H   92.778931   12.657006   61.939007
H   69.031364    2.210788   70.003380
H   79.077209   32.434616    9.546789
H   20.742973   13.545968   31.657639
H   38.964863    2.101511   62.297127
H   62.945320   66.223640   10.152275
H   90.337250   39.988335   79.141457
H   10.055036   87.518501   40.183319
H    3.141156   22.845428   14.897934
H   44.087246   29.812548    9.904653
H   79.334969   90.164047   54.545467
H   34.911995    1.794560   42.822414
H   13.248729   13.372587   41.670044
H   69.040924   19.818209   83.745705
H   21.816698   63.338711   15.922231
H   50.943718   52.021477   49.522064
H   38.141064   82.227646   27.051514
H   79.934677   65.114075   86.084190
H   85.758293    8.674942   23.354650
H   37.796619   22.483234   95.849556
H   66.133102   94.676483   55.439926
H   56.406200   27.537497   61.811470
H   56.315895   73.802055   19.895811
H   91.379143   78.276299   65.236481
H   43.306355   68.137985   86.345245
H   56.904423   73.948746   69.043877
H   73.659782   40.116943   21.489941
H    4.374348   56.254974   69.625946
H   92.134995   32.275894   26.910254
H   97.473801    9.249762   86.312515
H   94.237022   99.433601   53.010765
H   93.511467   81.958633   33.115433
H   36.580894   70.723022   71.729713
H   52.932037   67.833176   74.785042
H   56.702065   33.338230   70.901291
H   88.073235   98.873642   54.050095
H   86.081032   94.174858   19.317001
H   57.491272   58.782845   42.352306
H   56.281116   11.414765   86.400246
H    9.494350   87.019325   30.840012
H   37.004799   56.330883   17.840780
H   64.638786   96.144287   15.500060
H   12.551081   25.387459   64.364967
H   93.657776    5.219808   95.156982
H   22.863243   82.910606   24.686443
H   16.461813   47.878891   85.273438
H    3.365620   63.828053   81.674065
H   61.465023   51.750595   17.599373
H   12.744519   33.090275   38.142979
H   99.484810    7.727247   85.791138
H   50.503574   55.866608   46.281422
H   78.704544   46.515728   86.911377
H   11.272965   44.345493   52.525948
H   46.367592   38.868595   51.871933
H   71.993851   61.590527   66.643158
H   75.647003   64.623123   25.634451
H   15.390924   59.385284   27.350101
H   65.006317   79.400726   78.178680
H    0.264508   53.540058   45.012550
H   79.416382   23.766602   58.653820
H   75.732826   76.285378   72.459976
H    6.227819   55.259415   63.264252
H   20.494331   20.288561    2.649565
H   90.223236   80.787064   35.857582
H   51.828644   42.064480   99.413773
H    9.362169   30.373110   93.031837
H   85.645035   21.222082   60.510826
H   49.078144    2.665172   37.386566
H    2.594384   69.991058   87.850670
H   51.868591   72.407539    6.141893
H   14.713492   46.903057   57.583076
H   18.330503   42.828156    6.065687
H   59.940910   50.312321   83.452827
H   33.192379   98.493935   96.890717
