100
TIME:    1.722, STEP:  1722
H    0.870971   64.105148   97.569473
H   53.369698   98.108513   86.623528
H    9.354483   97.792152    3.121093
H   81.765640   61.703819   45.775043
H   79.747253   10.783406   19.014057
H    1.313381   99.342522   49.281544
H   62.718670   77.615822   25.115501
H   84.540489   37.576611   50.086296
H   11.297951   20.730240   91.693016
H   27.781542   41.108727   75.122704
H   40.078781   35.530750   73.877106
H   90.115662   10.005556   70.355263
H   33.726227   57.524010   53.975586
H   69.818291   99.768166   88.284752
H    1.445215   16.211327   67.999008
H   32.287079   61.118454   90.100357
H   85.621246   95.875595   30.139051
H   37.942810   10.959854   39.847946
H   72.082542   50.594742   54.082829
H   46.123581   69.243515   33.574379
H   62.090714   84.786804   10.506653
H   27.464542   46.372780   72.630531
H   62.752846   80.617302   83.081253
H   59.049065   57.334415   79.183929
H   67.995354   49.603447   49.267365
H   38.763157   76.297501   27.769609
H   13.588425   70.897293   34.137486
H   87.244583   36.816845   23.692083
H   48.614182    5.325553   75.772667
H   67.022469   48.220566   20.282539
H   83.840340   76.465363   73.148132
H   74.485352    4.937216   39.849892
H   91.652786   42.492180   52.928314
H   50.860100   15.911570   99.206772
H   37.968819   28.750282   29.586243
H   22.276073   19.755625   14.719949
H   44.961021   41.473488   44.152103
H   92.818443   27.436626   43.957653
H   73.306931   43.748375   77.081848
H    1.000666   50.975842   73.518326
H   17.561996   15.269401   82.914108
H   76.857635   89.141731   83.702621
H   26.073431   73.826263   25.855534
H   69.397987   41.631325   49.101673
H    7.285175   63.946987    3.465933
H   55.871349   95.761299   90.163124
H   54.262806   18.632349   42.337593
H   56.331379   13.112986   75.125542
H   15.367169   89.833641   75.784042
H   62.005642   56.959339   63.224415
H   43.413242    3.395196   71.573349
H   88.819389    3.949938   61.017155
H   44.600540   31.993469    2.858046
H   36.814800   79.111214    7.804125
H    3.670887    9.464312   15.018530
H   95.720840   10.722208   34.005859
H    5.419979   39.859566   19.764105
H   97.833588   14.265798   69.200760
H   26.087448   11.526898   79.285004
H   45.383839   60.147655   14.631890
H   68.325760   98.492012   80.134758
H   37.794006   11.916384   17.438683
H   91.034805   89.725471   15.422446
H   61.287231   51.161743   80.389076
H    0.670258   23.310486   55.928387
H   95.560219   56.667305   48.003429
H   49.409531    7.897797   50.200878
H   61.415459   16.020115   48.524158
H   42.727142   26.054382   52.232643
H   65.268372   34.754425   98.107086
H   67.351051   78.235725   41.494755
H   31.980639   94.375092   82.698814
H   94.713562   33.128979   17.593540
H   92.292351   40.408134    0.864988
H   45.195747   31.093901   31.937721
H   66.370964   17.936262   80.060387
H   23.301054   77.296127   21.502562
H   12.883021   38.123299    9.538671
H   44.093521   48.457859   36.891045
H   15.075510   15.169729   72.569374
H   44.580242   47.096539   82.908806
H   70.527420   55.473526   42.785233
H   26.753643   35.998230   93.911957
H   68.629280   59.515362    6.144264
H   68.482300   41.172539   80.823914
H   11.657284   72.308296   61.364174
H   82.163200   78.149490    5.654721
H   83.675964   67.427124   77.843208
H   91.418159   98.294487   14.111235
H   14.090202   38.428101   85.774879
H   94.493843   66.413071   69.827225
H    5.697612   25.016462   66.331261
H   95.771385   79.228012   52.133865
H   13.665119   17.684248   42.924026
H   26.820210   95.482727   55.656059
H   36.151749   27.730753   78.505310
H   25.917912   66.502541   38.155548
H   13.187739   30.899475   28.484222
H   26.680168   44.273159    0.807928
H   46.183395   34.471661   31.832947
