100
TIME:    7.259, STEP:  7259
H   26.425440   56.335701   92.500198
H    0.001566   98.217369   35.808247
H    4.546342   96.145988   38.131588
H   82.695007   33.580536   42.272488
H   30.152060   54.598202   68.884018
H   15.449458   93.343880   97.628952
H   72.524780   51.500980   58.116405
H   49.343208   16.598164   41.696869
H   75.187798   88.370056   43.158932
H   76.490547   20.613482   91.936958
H   25.040527   58.324162   40.525856
H   78.785858   87.546921   76.225670
H   80.867332   22.607662    3.727502
H   95.659370   82.701607    9.652485
H   68.773811   21.623161    1.818377
H    9.654358   76.830261   30.480886
H   40.381569   62.095844   34.203762
H   56.298061   41.615982   47.891281
H   58.323505   82.877380   45.793331
H   96.949112   51.658039   10.559031
H   33.517365   33.561050   60.218723
H   58.307739   53.720413    1.107394
H   88.824089   35.585243   24.662230
H   44.592377   23.666964   67.958252
H   69.960884   10.484413   90.149269
H   13.380505   12.106556    7.778129
H   36.127071   40.729141   43.999012
H   20.048676   95.265297    6.715410
H   69.010780    7.685500   14.035448
H   79.335724   11.179583   60.458183
H    1.741596   72.983566   35.070030
H   24.094814   51.950977   27.262047
H   81.671516   37.378914   51.745003
H   84.811485    8.478688   65.941147
H    0.299051   10.061836   66.696442
H    3.650439   53.984970   96.604591
H   76.031052   38.695923   80.446198
H   63.962372   26.108768   34.688675
H   38.667995   23.254881   40.860992
H   79.476372   32.619801    9.157105
H   39.149902    5.258634   13.363585
H   88.464882   70.069321   50.544056
H   73.758209    7.032492   25.799206
H   15.832685   34.484581   90.482170
H   26.991661   45.488094   77.282173
H   84.424309    1.370945   12.651735
H   98.445602   19.607292   95.143135
H   56.630672   70.135330   17.723293
H   77.216866   31.259586   54.911087
H   78.143799   41.220058   75.983559
H   43.003155   68.833893   29.946560
H   57.916103   90.157349   97.528442
H   59.447414   64.098877   81.277840
H    8.592529   88.765564   52.135574
H   62.822586   94.748634   62.091991
H    2.636835    4.897960   45.513306
H   56.439770   80.090935   46.378807
H   85.535812   91.364128   26.580725
H   62.777771   45.485584   54.211784
H   79.999306   85.738907   57.147362
H   17.603754   40.994270   48.426559
H   41.281837   60.376328   66.909073
H   66.875298   11.941657   35.699036
H   41.502377   81.305923   30.057552
H   20.444187   81.080414   71.567970
H   55.415558   81.407005   75.392578
H    5.164972   99.325989   17.526731
H   78.936897   32.687981   13.224776
H   18.688896   28.200882    4.959920
H   77.451286   13.246204   86.447372
H   91.525734    1.499350   75.074379
H   75.505928   10.572272   88.128120
H   33.691345   59.251385   75.629700
H   70.407021   89.997375   71.848541
H   12.144929   39.003674   51.683918
H   97.262352   72.807640    7.491366
H   26.055130   97.514961   19.480665
H   73.021347   76.072838   15.326205
H    9.609675   32.196751   98.667458
H   43.536453   13.587182   95.551949
H   52.921776    4.380044   13.843329
H   86.006111   91.546387   79.715935
H   77.023750   28.514196   21.253349
H   49.556522   33.327877    0.420430
H   98.876648   94.827782   44.073677
H   84.225082   75.690689   45.870270
H   51.966984   75.564034   69.680473
H   72.773705   24.201105   20.313362
H    6.327394   90.003120   68.821541
H   24.545362   10.619785   83.708237
H   21.090931   65.395134   86.758591
H   15.391390   41.425201   71.836739
H   50.769337   45.326084   80.354195
H   48.820328   53.567955   16.261972
H   31.089695   99.511795   82.890869
H   93.485199    9.082294   92.511955
H   86.417290   84.258957   19.717216
H   24.265772   45.634159   33.157806
H   62.911034   68.148323   37.020191
H   90.095955   92.356888   98.457199
