200
TIME:    0.691, STEP:   691
H   23.329409   60.978222   23.051397
H   31.984066   39.462246    8.206259
H    8.685131   88.878349   67.562370
H   33.045013   82.245155   32.706158
H   10.421761   95.159775   47.174206
H   74.946777   40.574146   52.200428
H    9.893409   54.984131   58.380817
H   12.995284    8.360919    9.063931
H    5.743820   80.744942   36.717278
H   94.985168   68.581474   78.283226
H   27.913336    4.228361    7.213692
H   32.642746   54.060680   34.231441
H   22.243412    1.975807   42.807396
H   83.087219   55.109730   63.998257
H   97.847610   75.416412   41.868916
H   16.154594    7.384018   44.593983
H    5.423314   28.841059   93.535042
H   25.853006    4.848162   35.491127
H   80.030998   13.374259   49.122967
H   91.491089   73.511131   19.987728
H   63.497543   99.271782    5.178353
H   79.988609   66.053062   53.194923
H   81.499847   59.262321   38.314713
H   18.160910   92.171005   90.171890
H   22.849251   30.842524   29.317463
H   18.287760   82.351601   92.061081
H    7.629629   67.846214   67.215179
H    4.860816   88.734146    1.917985
H   30.063843   42.821358   35.697506
H   72.669228   32.846115   83.025055
H   12.772676   70.291389   16.746210
H   23.724770   74.076645    4.707007
H   16.226105   18.689926   78.687965
H   81.500114   64.069962   46.173302
H   26.345222   71.165329   30.788250
H   18.329227   39.638950   84.648087
H   99.208969   64.694817   89.340736
H   10.606831   56.421539   94.889809
H   36.378654   30.251047   54.456570
H   85.757591   37.833866   46.079193
H   80.638504   84.155617   16.494053
H   35.787460   33.649693   26.457891
H   68.581436   77.421509   67.074936
H   36.276535   85.138390   34.878059
H   44.186703   90.055138   60.639168
H   34.713131    2.101287   47.592819
H   88.473068    4.116525    6.067099
H   79.136047   65.543724   31.434341
H    4.522127   11.637450   61.491493
H   45.978058   19.836771   86.632545
H   67.479645   64.787735    9.995346
H    3.898005   43.460552   73.238060
H   64.340660   81.523758   13.822520
H   15.694322   91.701111   88.381866
H   58.109024   66.354836   76.187561
H   99.524223   61.239101   93.416382
H    4.143388   18.452126   44.816746
H   72.335983   69.063683   97.163063
H   18.664612   83.189713   18.034351
H   32.672333   93.456703   58.657036
H   48.958874    6.577274   29.059549
H   98.042198   17.493269   52.523590
H   83.872246   34.549019   69.669449
H   35.053581   65.795776   13.737080
H   78.598259   82.802505   36.371937
H   21.048000   34.082726   40.969955
H   69.328712   13.648771   95.152962
H   94.815834   92.475304   96.200577
H   32.564590   11.947865   56.271423
H   42.640839   49.490623   50.958508
H   58.267315   84.392555   85.344986
H   19.465242   11.967367   41.607841
H   91.807755   33.460079   84.393837
H   22.558445   99.051422   73.702492
H   84.636642    8.172219   46.406715
H   64.713318    3.154319   59.930378
H   93.521347   46.739857   65.766228
H    9.850900   14.182404   32.545616
H   14.959373   49.786438   24.949640
H   61.479759   88.151680   72.873260
H   62.509586   22.479691   94.437973
H   46.467606   60.479401   73.914879
H    9.240145   18.613392   77.084030
H    9.966984   76.607109    8.550528
H   22.848019    4.092980   45.001133
H   37.373074   69.994553   18.394444
H   56.068531    3.723893    2.805289
H   71.580956    1.758632   28.452925
H   79.490097   73.154930   78.794983
H   21.185207    6.262588   49.903790
H   22.337473   38.786125   78.748466
H   80.913925   92.492447    8.208530
H   68.684563   11.775652   82.885109
H   39.804230   78.230652   81.488312
H   36.552505   50.825562   86.723419
H   50.595100   37.792728    7.856679
H   85.423439   98.679817   17.752579
H   94.496811   35.446453   52.863674
H   26.798561   65.260185   54.479527
H   75.046143    5.255628   27.360514
H   29.988249   92.896057   90.176765
H    7.342483   83.479790   63.376862
H   32.528206   20.687656   36.804977
H   43.546822   68.772171    8.072434
H   24.740891   21.545856   39.709457
H    5.278021    4.692043   22.775574
H   87.022583   35.696777   54.160309
H   62.093620   51.590488    1.302188
H   84.258057   34.396755   20.940739
H   18.854460   21.772223    7.744574
H   53.128300   92.147644    1.113162
H    4.102919   74.686462   95.648361
H   49.260929   85.508202   84.125488
H   61.696434    9.674345   63.323986
H   48.799950    0.748744   10.959204
H   95.633041   92.604332   99.280174
H   14.032116   14.793242   89.437729
H   38.482944   49.195168   24.963463
H   35.989864   74.646065   61.250000
H   82.684555   55.676144   66.167053
H   45.261665   24.756420   72.741348
H   98.829521   16.796169   61.454388
H   43.109505    2.801218   37.408409
H   97.432701   51.089672   98.115196
H   63.421333   97.785706   77.897018
H   64.245338   74.691574   16.823437
H   84.176323   51.295731   53.637146
H   65.563736   91.107170   38.811604
H   98.017822   36.158524   74.612427
H   89.604958   22.011713   74.185043
H   66.814529   69.082489   20.646595
H   64.389053   90.524490   19.962673
H   90.965065    4.536900    0.730228
H   78.806175   24.566139   55.257786
H   26.705822   93.215317   35.692604
H   50.346046    1.048034   77.037308
H   69.639381   87.713768   77.790253
H   95.065224   50.139244   76.072357
H   58.101608   50.640724   71.443420
H   43.692245   87.460152   82.925888
H   72.945381   49.805882   29.478500
H   36.476166   54.714039   56.760429
H   40.507450   65.061836   84.172218
H   37.047295   10.202249   85.597969
H   61.501057   54.809669   63.816059
H   62.464848   69.745636    8.246189
H   55.397911   94.802742   44.052650
H   30.337616   56.630753   66.237450
H   77.242035   45.962261   93.461021
H   23.838545   93.598663   73.119530
H   60.323864   68.969299   47.939468
H   52.772297   94.630295   34.019009
H   97.127129   14.974949   87.632866
H   21.831820   11.494851   64.807587
H   31.496391   65.789825   68.912170
H   76.890472   44.647182   67.936699
H   64.032120   74.409203   86.095993
H   52.458103   29.423775   20.290144
H   91.740280    0.034991   85.879105
H   58.623337   38.542114   95.548584
H   58.386051   66.086823   71.424500
H   22.428684   20.719099   31.636883
H   84.632668   14.906420   37.044525
H   27.829380   33.428680   51.903545
H   54.635910   37.391575   14.255939
H   19.684011   50.089203   59.836449
H   67.133820   90.272346   57.002769
H   24.026192   51.452114   66.662155
H    0.201165   26.703545   35.791988
H   47.054440    7.056276   85.324646
H   70.749084   10.997254   35.938225
H   30.582661   48.695446   58.843060
H   46.386913   58.074806   77.734146
H   65.672394   63.750607   84.702919
H   50.476166   91.643860   78.025421
H   14.831690   50.096977   23.719440
H   30.784630   67.010109    5.773677
H    5.727141    9.630966   70.647079
H   64.067818   10.895063   63.860054
H   64.846786   59.292946   92.747147
H   73.183846    1.351201   31.233351
H   28.324432   30.656582   86.080666
H   44.869316   89.691673   15.002022
H   61.302563   26.054893   93.782097
H   91.355217   68.773109   76.538773
H    8.701924   40.029358   86.211403
H   47.056061   96.799515    9.258236
H   68.753975   86.328194   41.307682
H   93.557320   63.184586   71.697815
H   57.814854   55.819981   71.401077
H   69.364769   16.103069   76.080818
H   43.955715   97.185532   18.879877
H   14.118179   28.253477   68.138077
H   27.224525   81.530251   42.402306
H   69.417633   34.110840   20.341017
H   76.429214   11.490111   23.387453
H   12.459126   97.857033   18.689131
H   15.802400   88.442749   34.247585
H    5.899122   12.873829   57.846764
H    3.303854   19.712923   91.482994
