100
TIME:    2.686, STEP:  2686
H   35.678619   75.701469   96.686905
H   26.554329   50.376244   47.432026
H   25.924704   67.145645   91.808022
H   81.927444   21.987314   92.934021
H   71.112793   88.052261   92.876877
H   86.368172   98.298149   44.749668
H   12.197683   42.709717    0.501553
H    8.771996   20.975428   61.575367
H   87.600929   28.045547   31.012501
H    1.440554   54.950340   12.869555
H   50.409851   74.319626   81.020020
H   53.325134   58.325943    1.737126
H   72.404930   99.200470   58.161697
H   22.086052   96.796852   61.647053
H   13.171928   30.102591   21.658270
H   93.525574   76.801666   10.079817
H    8.114989   59.627396   17.905527
H   58.543427   64.080452    6.425209
H   87.100914   91.033524    4.872550
H   20.154007   48.773403   99.208046
H    4.885624   88.817352   84.339996
H   19.889786   47.649689   90.540588
H   49.882057   72.777153   55.500992
H   69.483002   68.896057    7.587338
H   33.516350   73.148376   56.379395
H   34.342960   47.574108   37.412880
H   30.461678   30.822706   53.267155
H    5.905504   81.813118   55.558346
H   69.575180   92.787178   30.202868
H    3.987130   24.361801   96.918327
H   21.765516   62.913364   96.871178
H   35.352760   78.299553   50.607582
H   59.556858   71.961830   39.773048
H   91.590630   27.566788   58.593918
H   14.004479   55.879150   88.287437
H    6.091329   95.483696   11.406640
H   37.421463    6.168062   20.111448
H   52.972519    9.792614   11.985720
H   31.695877   22.892954   84.019089
H   10.202612   60.729782   49.363605
H   51.681606   48.345509    5.626729
H   90.218773   32.407288   28.991259
H   34.376926   79.607086   95.486473
H    7.840285   57.789680   43.356674
H   23.665346   25.915646   85.958961
H   43.434490   14.148121   94.075844
H   62.717793   70.911407   51.242363
H   56.382862   23.038202   34.772362
H   43.543167    9.995602   37.328377
H   82.217186   71.628212   95.803009
H   43.339695   10.327383   81.737595
H   35.666553   14.498085   97.730003
H   64.597847   37.583069   46.871338
H   14.493176   63.386497   50.341827
H   26.927719   93.973999   23.197218
H   96.927017    9.709093    1.189026
H   66.531105   12.043691   11.448463
H   26.051361   23.228146   44.371170
H    2.116855   52.259075    5.277140
H   81.770248   34.243046   87.214363
H   29.136003   53.659237    4.974862
H    3.582829    2.941767   73.822662
H   56.423382   23.988390   49.288254
H   27.481779   56.405670   54.218174
H   38.934078   46.318012   45.703392
H   36.339882    8.743843    5.002472
H   72.065620   41.224323   96.741653
H   94.825233   71.152283   94.608932
H   90.771538   56.787498   91.770821
H   84.802551   83.241280   96.077179
H   36.740639   12.644006   29.929230
H   52.493561   62.381989   53.278824
H   31.859976   85.445976   92.876457
H   71.081291   79.404648   43.571587
H   91.674706   32.466808    5.014583
H   89.155937   79.720695   15.196217
H   10.825991   93.742081   38.553104
H   58.173489   75.090538   62.779385
H   90.316620   45.629101   47.648239
H   67.798836   62.670345   89.519974
H   63.445141   57.069561   40.524250
H   42.857849   61.769180   62.175880
H   87.743607   52.090393   85.728180
H   34.943119   42.006073   18.093353
H   21.543552   80.873840   87.374931
H   89.471863    7.714840   28.307339
H   46.546593    8.058853   51.622192
H   99.194458   90.246887   67.811348
H   11.424480   44.619621    6.224912
H   28.859730   98.764236   20.236324
H   33.944824   18.468483   90.185135
H   77.027878   97.510063   84.703392
H   57.622837    8.115919   26.711815
H    6.839293   76.159325    7.922247
H   10.150700    9.133446   77.808525
H   15.774215   89.664558   28.713745
H   49.400101   21.824368   82.715111
H   16.726828   39.107361   13.058014
H   80.758690   48.428585   20.056999
H    6.050980    9.711107   38.985748
