100
TIME:    6.678, STEP:  6678
H   65.716385    9.616209   93.032120
H   16.045853   66.736488   99.174110
H   94.556854   54.345833   44.953480
H   82.597488   57.516998   74.119873
H   35.356812    8.028486   84.637756
H   24.461025   93.973320   40.090946
H    2.977010   12.267450   12.681452
H   95.008659   66.332764   95.041573
H   89.469887   44.230972   79.731056
H   92.359535   12.270685   69.188454
H   79.083740   34.946217   96.490990
H    0.958307   58.424229   17.581699
H   17.929733   57.758083   61.461845
H   24.426159   84.492409   65.440010
H   61.716988   73.520958   29.757671
H   33.016693   27.646828   78.708496
H   87.101997   23.668957   81.313026
H   43.873264   69.887604   68.029823
H   49.276409   58.505516   15.185687
H   12.601768   63.994183   71.001915
H   67.994736   91.400970   75.989128
H    2.606705   52.949127   50.584885
H   96.581276   40.310478   41.285751
H   98.575127   16.716524   11.106703
H   90.741280   56.562103   85.858437
H   16.104231   29.240936   62.447006
H   86.227669   64.882645   32.469616
H   69.070663   68.146172   87.511887
H   56.377647   54.972271   41.498871
H   57.057087   25.559563   14.270527
H   78.877602   20.885063   81.036903
H   87.410339   68.002808   81.048164
H   40.746510   79.888298   99.403931
H   60.263313   61.723862   90.418396
H   14.759274   54.051735   31.346170
H   53.144619    8.478135   98.430855
H   20.306435   59.972778   34.665501
H   87.978615   36.742764   93.690041
H   63.194004   35.913078   97.164871
H   34.200718   87.011322   63.446827
H   78.857834   85.321510   99.676491
H   37.428589   67.790924   20.884174
H   68.758148    3.547262   83.832909
H   52.929775   24.732687   33.675331
H   77.388176   68.410324   27.565054
H   91.924400   90.289474   10.291334
H   93.906540   88.009903   89.566826
H   56.596058   64.151215   81.774734
H   60.231827   79.377724   78.086868
H   65.945068   32.376865   16.605860
H   43.043049   24.925928   23.822815
H   29.676327   44.071068   35.667213
H   47.394962   60.730042   15.020399
H   22.045708   98.242630   26.497440
H    9.082359   43.833138   57.149555
H    1.913200    5.509115   65.291916
H   19.608644   96.855324   91.120735
H   28.797682   46.233040   41.546249
H   16.957176   20.932980   98.813393
H   18.340317   41.081829   73.672386
H   80.953789   68.012100   93.727005
H   61.902657   65.784195   93.194855
H   27.429476   51.588539   75.539948
H    1.605441   78.140991   45.833454
H   97.383240   27.483101   17.462099
H   91.107483   10.289946   41.039322
H   51.780258   79.237091   89.475479
H   19.070808   99.458595   85.449615
H   89.732277   69.947845   41.400631
H   65.676964   84.026299   87.671173
H    9.975338   41.030380   82.042549
H   23.335775   29.895325   45.554085
H   71.573013   87.985504   90.523499
H   83.199730   26.769150    6.369929
H   84.143913   38.162182    7.635438
H   83.529915   35.569759   46.584312
H   73.287689   47.803402    9.176905
H   45.724911   14.061800   83.240791
H   81.747124   33.903332   92.186882
H   72.029709   45.237709   45.605461
H   41.550941   98.368637   79.117676
H   42.408485   87.778610   28.323315
H   40.273987   18.797766   65.923264
H    9.585820   83.609886   53.484272
H   27.166330   31.172394    0.395281
H   97.594040   54.349770    5.523746
H   13.163317   17.807793   41.976234
H   63.429619   70.694458   26.337372
H   94.269638   22.351789   73.573372
H   75.914322   34.525219   62.936935
H   97.313896   34.024872   74.488937
H   72.403275   97.729172   60.765205
H   13.526048   27.892361   35.424568
H   92.669991   18.319300   77.086304
H   41.134346   51.555748   69.539642
H   45.497025   32.023956   22.521774
H   32.533714   50.916351   53.131561
H   25.387239   16.887077   44.820183
H   90.588676   65.639427   85.684593
H   54.006313    7.267076   54.428249
