100
TIME:    0.039, STEP:    39
H   14.685184   18.444702   99.110306
H    0.185335    6.859259   80.460632
H   80.434509   76.709694   22.881943
H   81.483154   31.044153   38.025604
H   94.821732   75.883545   64.647865
H   27.411572    1.171205   82.607964
H   50.925617   63.972538   93.502335
H   16.820974   91.976318    4.612560
H   52.669304   82.543640   97.631554
H   73.774803   16.947338    9.215761
H   96.627350   67.811768   35.992950
H   54.353519   25.645348   90.153358
H   40.781433   59.347839   21.252865
H   53.151035    4.957021   60.209114
H   80.977440   66.537430   48.898548
H   99.953552    8.327396   29.803028
H   20.930349   84.576241   76.905586
H    1.978240   92.803940   98.194138
H   45.871590   79.989914   65.415634
H   91.593697    4.714697   18.848673
H   61.962234   52.335464   56.182518
H   66.087379   44.151413   15.934582
H   85.223320   94.305031   31.235371
H   15.418049   37.149509    4.177720
H   28.187735   83.079704   36.846207
H   46.474461   26.453075   85.514610
H   58.716610   40.856243    0.740291
H   29.249725   58.259563   68.065475
H   12.019059   52.630215   55.328552
H    2.489534   89.874405   86.489281
H   17.635897   25.539545    6.325878
H   68.219849   51.432495   95.653679
H   73.105774   65.628807    1.310381
H   79.749962   70.148590   70.108437
H   79.802422   55.972092   27.103516
H   75.946007   87.549614   20.510138
H   83.541161    3.105278   11.537153
H   62.376244   58.240437   25.193758
H   48.967953   79.675453   38.388969
H   59.519245    8.531792   41.102570
H   32.576321   57.517208   43.256634
H   28.116074   13.606792    4.632699
H   11.577744   63.733807    4.290635
H   76.869263   13.425477   84.544571
H   53.271851   30.353188   59.444603
H   77.453346   63.937283   83.471230
H   36.491871   27.844311   27.956488
H   56.241497   95.783325   70.991043
H   66.167046   29.219166   42.918846
H   26.707739   31.342999   80.937027
H   43.535427   65.879829   53.838886
H    7.028821   60.120850   71.502548
H    9.688425   22.234863    0.604360
H   75.781143    6.566029   33.536640
H   37.655014   61.924671    0.737122
H   93.615036   12.491459   91.299149
H   98.725044   88.421471   59.696678
H   23.156088   73.203407   12.550453
H   93.353386   40.416916    8.489013
H   56.450066   30.785460   62.489548
H   62.160934   76.756454   11.355603
H   97.526947   27.582352   93.589340
H   76.878960    4.493686   30.882538
H   45.717644   42.006630   26.082090
H   33.869308   57.730190   99.192833
H   98.949684   40.334370   48.491848
H   84.439323   49.709942   68.945236
H   77.671715   19.767662   68.067024
H   58.847656   46.984032   57.787678
H   31.176815   50.105949    1.648754
H   20.794535   92.750648   61.679661
H   70.750511   50.231194   59.478024
H    4.448503   16.378002   60.749691
H   29.332542   46.912281    0.890732
H   64.050339   28.699190    4.354128
H   26.579733   10.071695   93.305771
H   70.496674   23.163914   91.721741
H   33.812622   48.169895   16.593819
H   63.423988   53.385380   18.123318
H   97.612808    6.829757   17.561152
H   11.645372   29.684278   82.319687
H   44.250507   44.482254   83.519348
H   20.263580    7.908299   33.614319
H   52.853409   15.498875   59.867989
H   50.432274   46.446396   43.971596
H   50.402103   10.480628   44.493504
H   69.759438    0.517298   25.402874
H   56.582993    2.171713   95.332542
H   56.492622   92.001106   27.881985
H   62.886604    7.682480   25.606054
H   25.618624   75.536545   34.285351
H   81.172234   98.439949   34.268173
H   87.786583   28.799986   21.931837
H   50.997879   15.597826   29.448627
H   55.917408   46.236744   16.983658
H   97.142792   94.191582   65.434502
H   59.506645   69.918526   34.945946
H    7.008616   16.569733   55.411110
H    6.854116   37.018406   41.784710
H   41.663555   77.700783   93.929550
