100
TIME:    5.748, STEP:  5748
H   28.608263   94.901360   93.883560
H   41.728767   16.338697   40.535404
H   78.563965   87.438477   55.873203
H   82.441391   95.831818   25.095047
H   43.686737   33.484970    9.853834
H   38.885845   94.980858   47.990368
H   51.716610   49.470928   39.954166
H   68.104828   85.876999   80.431847
H   12.331123   33.646713   38.270767
H   17.763308   98.916130   32.775181
H   65.590073   97.526016   86.072899
H   36.456245   11.808025   83.780418
H   77.275131   13.997406   53.871513
H   70.474312   87.358925   94.664726
H   50.415596   56.592850   74.472321
H   70.409119    8.987960   55.906952
H   61.887154   62.154881   96.651459
H   23.985037   15.140457    0.271009
H   34.794827   19.488260   66.187378
H   37.655403   83.747597    7.683135
H   23.182243   83.985779    1.234153
H   13.446701   51.714539   29.782959
H    8.998946   47.874107   67.893265
H   84.986107    5.591036   80.177200
H   24.002472   30.314674   78.990150
H   20.343695   56.735367   49.901169
H   66.423431    3.538481   14.014837
H   47.541874   24.736900   56.773216
H   36.155937   70.595551   85.461578
H   21.396980   48.576836   40.337723
H   42.275642   37.489887   54.615471
H   28.689335   93.702118   67.142906
H   75.239250   47.931007   15.622190
H   20.968342   46.952782   29.596312
H   37.892349   24.415129   74.740570
H   72.301483   35.637123    1.354815
H   31.107327   94.030396   61.385235
H   26.417500   53.764477   28.062061
H    2.445920   56.177361   87.288643
H   21.796427   74.075340   90.275108
H   42.416183   53.409042   77.766090
H   15.804023   64.143921   73.403862
H   60.751728   97.968994   16.658447
H   12.315224    9.122946   42.744781
H   58.058453    5.106627   47.982525
H    3.928367   72.551132    6.513068
H   86.640915   37.434341   80.640892
H   56.546391   54.572510   24.231558
H   33.049591   56.399567   15.183425
H   46.430660   18.219587   81.641281
H   43.106907   14.711123   14.020249
H   84.474922   30.367664   96.715492
H   28.102741   55.337585   69.035423
H   43.580055   13.417180   85.460289
H   83.130394   62.333179   49.238255
H    0.754863    6.487385   96.951309
H   60.648682   23.690880    2.670005
H   98.048004   34.060341   65.500107
H   43.608818   81.635948   70.206993
H   79.709702   69.599411    0.123802
H   22.288952   11.263885   66.235466
H   94.910164   74.440506   35.275612
H   64.293541   15.049662   39.312836
H   37.744385   73.074921   71.083771
H   60.472618    1.760470   30.855654
H   48.237175   56.522942   86.049950
H   26.396004   47.084759   44.576187
H   83.311989   46.271946   40.990238
H   43.382381   36.771706   99.727051
H   46.838211   37.249779   89.629486
H   39.508415    4.306709   93.196419
H    0.018810   60.760040   77.464127
H   32.211548   33.986420   14.368034
H    3.675679   85.627892   61.626793
H   39.305294   36.835354   37.135880
H   61.547768   75.966484    9.162516
H   88.836113   28.347311   92.704384
H    2.031825   74.873619   31.880304
H   37.150105   36.635036   81.813499
H   17.637657   95.898415   25.725719
H   23.351404   88.747360   23.533350
H   72.614456   81.747437    6.120438
H   81.448906    3.245992   77.354446
H   45.602646    4.027606   38.425816
H   72.449150   89.343971   90.548340
H   18.999546   20.186951   40.941864
H   51.050652   85.426353   97.630249
H   48.472649   45.113125   35.979935
H   74.970322   74.132896   81.179573
H   58.139050   72.788742   29.695036
H   59.254509   83.806732   54.849041
H    3.592691   27.783556   43.048149
H   53.911316   99.986458   63.506245
H    2.790154   61.897655   14.377765
H   57.212379   34.858959   48.168491
H   68.682816   68.749420   70.557205
H    6.353441   97.546822    6.616433
H   27.182360   70.868149   63.488014
H   34.891479   61.627666   63.582977
H   96.242249   31.132214   44.017963
