200
TIME:    0.325, STEP:   325
H   12.083063   62.192898   16.793024
H   28.721893   34.119068   93.347839
H   16.356104   72.858589   49.534904
H   20.707735   77.967262   42.276966
H   14.307676   85.883560   52.436405
H   86.853394   50.507961   63.033382
H    4.590720   55.243820   51.296604
H    4.793429   92.556885   22.055191
H   90.880432   86.231926   45.645844
H    7.869032   73.708244   92.719719
H   15.156423   96.409981   95.647751
H   31.129288   44.291615   16.792377
H   13.260394   89.828850   57.807945
H    0.385914   53.565556   46.361721
H   15.518019   72.598923   42.769451
H   26.822800   22.464149   52.489376
H   88.206055   11.699469   11.305166
H   34.543728   87.253227   42.007095
H   67.853523   26.624628   43.735111
H   90.326675   78.537376   34.175701
H   59.105164   81.001381   21.946239
H   88.136711   52.063347   67.299126
H   92.459854   61.923439   47.096680
H   10.408626   88.834137   91.319550
H    6.940998   16.122606   42.377323
H   18.590731   66.108452    4.149199
H    0.541717   60.502308   52.499451
H   96.460968   73.635864    0.954928
H   14.648629   53.946114   37.840641
H   89.208366   23.041386   95.685608
H   13.250518   55.000431   16.298735
H   30.380356   65.498520   95.695831
H   25.069504   10.814548   74.217400
H   93.613365   63.670654   39.776009
H   43.909382   86.288742   33.572536
H   30.284710   47.983913   80.451172
H   88.704117   72.594398   86.593056
H   28.710493   46.954048   11.345678
H   49.924385   43.356888   46.321033
H   89.267586   39.338947   60.376068
H   80.529602    1.253182    4.345614
H   17.570116   41.324490   37.310749
H   75.171402   85.829300   53.484524
H   37.091904   67.362236   21.788334
H   31.681145   78.888496   47.431313
H   39.863636   11.626388   43.612312
H   81.575943   22.047848   98.042793
H   88.046463   65.549309   44.591934
H   90.367607   25.526531   61.227615
H   59.075615   18.185091    2.116300
H   76.186218   69.420258   24.500107
H   17.888815   37.160992   65.369194
H   54.468884   91.989716    9.040240
H   21.141535   83.977448   82.961899
H   73.601028   74.494560   88.024368
H    4.216015   70.256058   81.431580
H    5.187905   17.067116   48.742802
H   68.337326   60.555370    3.769295
H   26.387577   76.119461    9.182306
H   41.137367   95.511879   65.422920
H   50.144230   13.718033   39.753078
H   91.463905   16.626242   49.717598
H   73.789040   26.967304   82.017258
H   26.185507   65.273605    5.565295
H   72.714760   77.346237   21.405392
H   35.405445   19.863441   34.391159
H   83.000099   21.369051   87.591255
H   96.865425   91.643181   88.954407
H   19.545948    7.001901   60.903946
H   44.747673   43.111481   50.978054
H   58.427876   78.062279   75.554977
H   29.751593   21.587593   44.169830
H   80.191544   27.132595   96.649498
H   10.634533    7.096348   63.046974
H   80.180038    2.247532   63.616020
H   55.462234   16.075676   62.322033
H   95.068314   33.114544   70.943260
H   23.406942    7.517742   45.060966
H   12.176788   33.480431   33.055866
H   66.995308   90.192894   90.230560
H   46.975697   28.665462   99.871902
H   30.373919   67.061737   85.229515
H   10.668087   14.598680   87.792725
H   21.902222   64.639061   96.621918
H   35.881351    0.222677   55.373348
H   27.061956   82.800308   26.013393
H   39.664822    2.961230    1.966187
H   74.624626   15.380790   14.648204
H   68.287758   72.262077   77.475662
H   23.018391   89.857086   53.930370
H   37.679646   35.626572   80.376411
H   83.463348   89.281235    0.222546
H   51.297569   15.903456   93.308983
H   56.216316   91.379868   71.438614
H   27.278727   55.776413   71.479935
H   65.752022   29.609722   25.065147
H   80.458626   11.339205    1.989970
H    4.557991   29.759539   49.398357
H   35.091866   68.926552   53.182476
H   68.682358   99.308685   27.271158
H   13.658587   82.776550   72.942329
H   93.733086   77.942543   65.395737
H   24.941366   34.063644   31.690729
H   25.960308   68.096420   93.537804
H   25.226063   26.355694   27.843330
H   90.788162   22.611305   39.911259
H   69.684830   31.152212   55.863647
H   64.250557   37.537945   15.454839
H   74.956711   39.016712    3.242771
H    7.097236   26.875257    5.953276
H   48.312878   95.328140    0.855654
H   89.407005   65.482849   91.479370
H   55.617733   81.261024   92.086502
H   62.936241   17.564852   72.762054
H   61.013725   85.508072   23.792322
H   10.569593    3.310650   82.768959
H   29.080181    9.639595   85.171005
H   40.339863   31.180267   32.279442
H   22.090405   60.904873   79.338684
H   73.025787   48.371334   52.513592
H   41.441719   22.324276   84.734528
H   14.621513   25.466442   50.688450
H   34.285652   18.237667   26.550674
H    2.824961   64.259857   14.142943
H   74.372963    6.847534   90.001892
H   50.836437   64.678177   23.890198
H   93.273827   49.586807   67.772064
H   73.569427   88.236626   35.720463
H   93.513748   49.406868   82.953201
H   71.865105   23.746466   67.949707
H   52.040161   82.150726    6.659672
H   78.437408   86.894424   11.331494
H   92.160194   86.730209   98.007439
H   96.752663   15.182317   50.753445
H    8.625158   99.833206   52.510979
H   60.094170    1.517761   82.429352
H   69.033440   86.781120   59.570114
H   91.943367   61.566971   81.855331
H   48.534988   45.522331   71.529984
H   43.493988    5.013226   93.095657
H   54.825764   60.569027   17.655655
H   53.325256   43.593472   48.228378
H   52.273052   58.325493   96.517235
H   53.818199   23.450747   79.532967
H   44.297337   66.948051   51.848011
H   49.054546   63.440365   25.775219
H   46.741600   96.405556   46.673279
H   40.331467   70.254669   68.337303
H   67.457611   61.243443   97.099464
H   12.171489   89.602798   86.816048
H   73.224159   62.753506   50.702507
H   37.365459    4.757800   45.488621
H   80.124458   28.660297    0.480556
H   12.156857    3.093794   73.852036
H   16.983109   56.123817   62.291126
H   66.025406   43.739666   56.676029
H   60.201000   63.432510   81.762253
H   47.254543   35.296104   11.715509
H    8.491542    1.414055   99.452759
H   62.726707   53.475647   81.503021
H   54.790890   80.956131   81.155869
H   39.613247   22.615808   34.807606
H   68.878181   30.864050   37.196709
H   14.394687   22.676704   67.562012
H   58.140320   24.972559   10.659730
H   13.378167   61.734734   61.837173
H   73.436172   96.192146   53.122787
H   23.706467   34.799885   51.527576
H   95.227936   27.893787   36.656223
H   30.351948    9.818268   89.446167
H   77.741150    6.644666   35.968941
H   43.226540   62.290043   57.719135
H   39.315266   73.801895   88.032364
H   70.178947   72.506699   76.212814
H   67.487213   94.397125   95.234726
H    3.531707   48.119987   23.368294
H   34.544540   55.576427   90.463684
H    2.483334    9.281921   65.967087
H   73.427803   19.403589   68.140694
H   82.257141   55.366890   87.584076
H   79.865959   88.235413   39.743000
H   20.942135   30.209805   72.719231
H   61.721916   90.077560    7.752357
H   53.331776   25.377747   80.317345
H   86.622169   84.647667   78.046646
H    1.039883   36.941010   84.379616
H   34.311737    3.068579    1.148499
H   86.337456   70.825020   28.500723
H    4.156839   61.552452   67.514862
H   51.159267   57.810932   66.776932
H   51.880844   28.212132   78.694466
H   46.956104   87.239151   23.541719
H    5.988534   19.546206   59.753330
H   33.618504   66.923424   35.026291
H   81.977661   50.458702   21.538240
H   75.535660   10.592019   28.401831
H   10.026284   87.877144    6.335736
H   26.439198   95.716843   44.569538
H   10.779816   11.849731   74.215569
H    7.121198   32.113083   96.567879
