100
TIME:    0.793, STEP:   793
H   63.694984   49.299141   98.419998
H   79.211479   47.740978   28.022367
H   93.389282   30.955132   14.028748
H   81.609711   99.977440   96.695671
H   88.068222   36.319969   44.203255
H   15.719486    0.350574   57.279720
H   11.409927   14.884094   52.466404
H   57.558060   57.205631   35.383537
H   34.134544   10.049717   50.171227
H   53.169121   27.770786   38.743668
H   26.492096   98.150787   63.362732
H   25.573444   63.439690   36.481941
H   92.819901   13.729939   46.310890
H   15.816906    2.632266   17.587307
H   90.147026   99.190796   12.653048
H   69.639297   42.375866   67.214340
H   60.310524   34.439346   45.555656
H   18.090141   56.137100   72.054489
H   57.612572   11.619441    5.142155
H   71.183601   88.905792   70.288094
H   17.218796   77.272064   35.720650
H   38.385914   45.146606   51.733707
H   75.156334   88.172798    9.660805
H   45.363251   46.192539   48.180290
H    1.222439   23.283642   42.413551
H   43.022869    3.981385   14.845561
H   93.697342    9.512290   15.702360
H   65.628929   93.453751   92.985580
H   28.414215   21.039129   19.686665
H   31.399714   71.213089   46.429531
H   47.296116   93.155174   46.660362
H   15.827496   30.602463   25.852074
H   26.215290   10.462847   69.236656
H   11.608178    1.049094   38.342781
H   61.060570   98.975288   73.015854
H   41.503601   46.779552   17.915731
H   55.857388   75.494484   70.950630
H   31.214607   44.440037   78.400780
H   15.069494   63.579781   66.122467
H   88.501640   37.945194    0.425244
H   81.048492   83.390800   61.026302
H   60.350853   47.449020   40.056522
H   18.071409   68.255325   58.751358
H   28.720503   26.060984   58.268196
H   87.868507    0.604510   23.966833
H   67.823555   78.111626   86.428047
H   44.453419   68.520050   34.399361
H   56.281765    3.548103   17.644239
H   88.210869   66.771957   12.840373
H   42.521534   42.819363   28.201431
H   43.484119   93.084175   61.778141
H   43.670692   90.154465   22.002609
H   25.329065   26.606812   56.814857
H   58.325993   94.264732   66.809464
H   77.629517   28.023104    7.135227
H   94.558456   11.698540   65.631210
H   46.523727   66.665276   31.408440
H   67.010193    1.998227   93.128860
H   52.818306   72.274612   50.604961
H    6.689698   88.740128   41.054771
H    9.723431   41.692490   52.566368
H   70.766022   20.564224   59.475876
H   28.021267   53.077080   79.155128
H   97.492744   46.108208    5.608717
H   63.799896   97.508080   69.412560
H   52.630043    2.850765   93.074211
H   23.944983   75.777405    5.347811
H   25.588005   62.889694    4.112586
H   96.424187   92.806412   10.496021
H   46.450027   88.028954    0.063207
H   96.850090   41.446758   52.636631
H    8.581022   25.207542   14.680933
H   55.286896   79.080910   41.415325
H   12.736680   99.196426   56.078255
H    0.406500   29.772043   61.512745
H   44.406925   58.397675   42.570591
H   38.954189   57.813835    5.065969
H   69.236908   98.867973   58.235958
H   99.561684   51.179539   26.530689
H   60.635330   65.767448   52.603485
H   26.400272   37.485607   27.384003
H    0.822055   49.406448   20.467804
H   67.970772   20.492956    5.429231
H    4.720205   80.019630   90.998299
H   13.716705   99.280350   70.880028
H   33.040897   38.182713   96.851448
H   20.117407   45.695366   61.356396
H   68.720901   41.804375   87.497551
H   72.139595   50.018898   21.712360
H   96.224533   76.654449   52.561886
H   56.475376   16.251913   50.208447
H   36.960926   55.147102   48.632324
H   36.163765   51.390709   80.263329
H   23.874010   61.335426   80.286018
H   42.882099   78.697784   34.307884
H   59.420135   64.416313   26.489647
H   99.658127   13.188903   91.582687
H    9.776780   22.989594   43.347984
H   70.935387   40.268604   78.625282
H   88.489426   58.335972   21.308764
