100
TIME:    6.893, STEP:  6893
H   51.176590   89.899849   92.835281
H   10.108715   78.386040   12.730571
H   98.254135   69.814049   42.429028
H   82.633575   48.659271   62.335583
H   33.431076   25.261686   78.808060
H   21.126255   93.740395   61.383938
H   91.708282   26.785816   29.494730
H   78.110085   84.933990   75.301964
H   84.184776   23.559662   66.198418
H   86.487190   15.358177   77.606575
H   59.084961   43.597263   75.780312
H   92.753235   69.201126    2.278270
H    4.210098   44.755268   40.098320
H   13.781218   83.829720   81.800560
H   64.328377   54.316093   19.418736
H   24.371483    8.842045   60.861816
H   69.813026   37.888889    0.885325
H   48.471081   59.425644   60.576965
H   52.624302   67.524994   26.512096
H    6.809799   59.429173   85.640129
H   55.236328   69.998077   70.152870
H   23.218964   53.234543   32.275635
H   93.710716   38.561897   35.134552
H   78.599312   19.288546   95.139069
H   83.051460   39.510979   87.446266
H   15.106182   22.894833   42.221054
H   67.688774   55.944702   36.736088
H   50.929909   78.181648   94.617752
H   61.052559   74.478951   31.335505
H   65.301331   20.238365   31.361839
H   87.338371   40.164215   64.026787
H    0.985608   62.062107   61.144524
H   55.891582   64.157631   18.772833
H   69.347404   42.020340   81.360550
H    9.408140   37.773201   44.427719
H   71.834419   25.318295   97.755043
H   40.927361   52.099243   51.606724
H   79.091362   32.807636    8.862151
H   54.118114   31.228460   76.329529
H   13.950237   66.884598   80.361862
H   64.163849   92.699669    4.741479
H   19.309616   68.634048   31.860374
H   70.608429    4.837000   99.363457
H   39.201939   28.341391   54.696030
H   58.738205   59.927380   45.963078
H   89.148979   94.390274   11.164804
H   95.586227   99.702103   91.630348
H   56.608334   66.365646   95.077728
H   66.516548   61.570637   69.511276
H   70.459229   35.649303    1.572843
H   43.028286    4.168539   26.088917
H   40.126987   24.119858   21.553902
H   51.854992   61.976685    2.533452
H   17.067337   94.735626   35.984573
H   91.963638   62.675491   58.978512
H    2.180982    5.282956   57.972809
H   33.238064   90.651634   11.569178
H   12.788898   25.928915   36.008530
H   33.913162   30.018711   82.308495
H    4.152847   57.608051   67.557274
H   94.515953   58.013695   76.962936
H   54.271889   63.783005   83.467758
H   42.026424   36.917519   60.796753
H   16.369228   79.312180   39.995556
H    5.916892   10.311413   37.484440
H   77.899628   99.602013   53.751801
H   34.530655   86.671021   99.855423
H    4.219027   11.755115   95.727859
H    0.446897   54.499313   27.915562
H   70.033653   94.839287   87.218445
H    3.147784   26.402008   79.463966
H    5.626216   22.749786   61.304344
H   57.554840   77.352188   85.012024
H   78.465767   13.161877   93.595428
H   94.510735   38.468922   23.934471
H   88.611626   49.350086   32.118332
H   92.814056   29.193974   12.989828
H   55.826000    0.003350   95.113426
H   92.058174   33.271809   94.585030
H   61.485733   33.525826   27.082970
H   45.758362    0.593047   91.967941
H   58.541031   89.172882   10.336388
H   53.873878   22.393347   86.397736
H   24.377403    2.007763   33.848003
H   16.697477   17.723412   79.553383
H   92.646835   62.247910   20.454224
H   27.522676    2.175246   52.228233
H   66.887413   53.489780   24.108177
H   98.731308   10.381363   71.814949
H   56.905682   25.678974   70.623245
H    6.112677   45.633415   79.029343
H   88.311096   13.898999   64.861427
H   27.307941   34.343739   52.050850
H   13.448842   31.363123   91.583450
H   37.417381   32.296753   74.480286
H   63.255127   23.534479   11.416639
H   15.468609   63.254837   40.766830
H   24.972239   27.525372   40.504501
H   80.346519   66.567848   67.677162
H   67.360573    1.750062   33.715931
