100
TIME:    4.564, STEP:  4564
H    8.677982    3.479340   94.967545
H   74.428963   52.181351   65.881958
H   58.205696    2.256934   69.771553
H   82.242661   44.614067   89.994514
H   54.291718   38.582230   41.955154
H   57.250347   96.263573   30.734114
H   13.771563   69.521835   47.363750
H   61.164894   83.445831   89.142403
H   41.436104   47.483444   12.798977
H   50.117851   81.915642   86.410828
H   75.722870   49.884907    0.122291
H   81.645836   52.460320   68.058571
H   52.828812   85.595711   71.520020
H   29.098148   91.008339    4.561603
H   36.016670   62.352478   31.384499
H   18.015671   12.545021   54.189392
H   57.097420   83.843735   88.867271
H   98.666603   72.747887   41.314404
H   16.354225   69.820343    3.812718
H   69.553215    8.894419   27.070932
H   93.442497    1.856002   33.369576
H   99.935471   50.142761   30.611496
H   24.808052   57.503502    1.767898
H   94.996414   91.419678   68.111649
H   66.349274   24.211365   70.246010
H   25.741034   91.731873   61.239552
H   68.520958   52.758266   90.524086
H   47.444401   69.471802   17.632349
H   10.410817   63.173733   41.428871
H   75.997482   77.880547   46.213203
H   95.676552   31.318531   48.289787
H   53.930920   26.413910   76.751717
H   91.839088   34.557854    8.958119
H   70.941284   55.459351   79.477440
H   67.322525   13.916840    2.645233
H   69.378403   42.900990    5.078975
H   17.546331   37.393051   68.090683
H   75.352455   75.430367   44.509747
H   52.426128   81.976189    2.027125
H   33.315926   84.916985   97.120056
H   23.334423   12.786725   49.871563
H   21.434792   16.692316   17.221972
H   50.553242   90.868896   31.136705
H   87.917068   89.256805   26.978811
H   60.761509   51.817848   46.664692
H   19.205837   49.968128    1.701003
H   77.390915   73.043541   69.277122
H   56.483158   42.377686   50.972374
H   98.442734   54.458370   62.416473
H   21.598385    0.198349   64.450783
H   43.196415   29.019085    1.538620
H   26.933817   40.234249   74.444519
H    3.542413   48.472351   37.799053
H   70.998131   32.738899   33.212242
H   77.402344   58.566639   39.166233
H   99.276810    7.732838   37.257477
H   85.589584   57.854454   90.061745
H   86.210831   45.874382   95.996201
H   50.228928   31.609859   61.103447
H   57.840679   78.592651   33.799568
H   47.601562   66.323143   58.549461
H   36.929344   85.461014   88.847351
H   83.910683   95.843552   20.503288
H   56.442192   66.625214    3.224812
H   13.474641   96.324615   20.594645
H   20.971252   15.382708   16.042624
H   21.390379    6.152954   87.411667
H   65.099052   78.557022   84.388191
H   84.371353   21.846390   73.987305
H   22.853334   77.699219   92.122650
H   77.104607   84.865143    7.398493
H   97.644928    0.054477   90.776482
H    9.409765   92.553078   44.728630
H   29.737637   60.561863   31.976036
H   82.219612   35.146145   47.380459
H   33.553871    0.081754   88.830246
H   81.336899   30.968861   71.765419
H   46.405346   52.292492   66.494026
H   80.372780   40.112820   68.606956
H   75.697968   60.389988   27.728447
H    0.182416   76.498337   52.768261
H   83.767708   74.033951    5.138300
H    6.556748   83.445496   64.597198
H   64.144501    2.710094   46.565559
H   30.100908   63.405449    5.323834
H   46.252720   76.699013   58.721237
H   71.973961   71.512939   41.172729
H   29.419573   39.889229   48.279488
H   50.400009   40.055534   90.863167
H   62.820683   21.499763   87.369263
H   10.800406   19.875099   29.845133
H   15.987525   38.736511   20.491655
H   78.014809   64.461433   71.945663
H   88.355576   90.073074   34.545940
H   77.681618   40.914650   20.962315
H   70.889267   15.504385   31.712578
H    0.333879   29.599072   74.709030
H   23.618597   55.097412   83.002510
H   91.294800   56.523907   62.755219
H   22.698977   61.511005   58.076420
