100
TIME:    5.184, STEP:  5184
H   66.749672   46.622078   94.399918
H   57.305550   85.777069    4.972877
H   68.865051   46.861389   62.495487
H   82.346725   19.069656   56.011467
H   48.738434   88.277969   25.144901
H   47.633801   95.591881   92.134941
H   81.276283   11.385395   95.848557
H   12.434120   37.083599   32.216236
H   26.195320   87.872849   73.773460
H   33.174187   90.817924   10.688261
H   18.051971   74.832108   40.400356
H   57.984047   83.537895   23.926008
H   13.265213   48.103951    9.913574
H   98.400642   89.097328   51.745590
H   43.556648    6.971896    1.581252
H   93.085815   58.317459    2.723446
H    7.240654   24.852360   45.308319
H   11.924151   42.581875   19.821604
H   26.010979   95.827118   36.474995
H   52.849220   95.727089   69.283455
H   56.650810   40.134064   16.541992
H   59.375473   50.965820   77.812805
H   16.530159   52.461082   84.029434
H   37.389553   98.843964   22.063843
H   44.173981   75.043076   74.824867
H   22.914724   73.406982    2.938399
H   15.056376   26.983734    2.823618
H   95.131325   98.411316   38.128410
H   23.892448   19.425062   12.122005
H   99.771591   62.535698   95.502144
H   20.077732   86.914841   99.237358
H   93.078255    9.285302   19.355171
H   35.511066   89.196571   64.812614
H   97.137268   98.640160   53.357140
H   51.911453   67.049423   40.397156
H   23.273733   91.461479    3.128575
H   77.011597   14.686169   16.944073
H   49.726734   64.087288   88.262215
H   26.253796   68.466667   41.943878
H   74.917992   26.874310   45.901035
H   80.962265   34.058548   64.478493
H   65.712090   44.518936   46.345966
H   55.893665   94.586853   75.919044
H   48.326962   99.656006   87.600143
H    6.982485   27.357857   99.718895
H   11.206318   61.793690    4.221369
H   82.234665    6.760963   75.227745
H   56.516270   48.763489   89.334496
H   16.564880    3.111731   37.682129
H   34.601772    9.635145   21.088768
H   43.149113   69.161697    8.074609
H   57.064949   82.703186   33.742149
H   16.402943   52.067322    1.789821
H   56.639595   22.620949   60.571861
H   28.037529   12.905627   44.440434
H    0.052338    7.080658   16.151215
H   24.895233   39.964745   49.029030
H   40.043839   87.322609   80.026962
H   99.128654   57.805878   13.504116
H   16.928967   26.247456   16.165291
H   86.711060   37.492046   10.211154
H   14.926176   79.690140   60.796577
H   26.001707   53.536423   77.988007
H   99.015053   70.002594   86.393768
H   38.084221   46.806980   78.332237
H   82.884758   84.561150   52.701866
H   71.646393   27.587475   17.345779
H   22.271599   14.015620   14.027778
H   15.271053   77.297157   35.101341
H   35.413803    8.881725   90.817108
H   57.417412   42.681000   99.960701
H   46.522278   79.477997   36.169846
H   68.984802   61.882629   28.830345
H   16.089779   21.324005   95.138390
H   12.113353   36.030697   94.379974
H   48.212837   39.818588   47.111584
H   37.628452   77.232124   82.730080
H   75.534073   11.750919    0.731473
H   10.105651   38.291683   75.522545
H   45.292198   26.621124   74.315033
H   12.314623   82.912521   89.824837
H   30.287430   78.083023   53.294823
H   45.775017   93.814148   23.641439
H    6.801291   55.765305   89.938934
H   99.910759   24.622337   45.221687
H   31.981632   99.470314    1.775779
H   13.382376   26.433899   70.736633
H   39.399734   90.251434   41.832191
H   63.266220    5.535810   85.792366
H    8.002973   95.990402    9.533775
H   36.173332   53.351757   42.938396
H   61.862400   85.365891   32.303612
H   17.757692   83.067146   19.891254
H   48.281403   27.680372   76.348335
H   66.962929   85.378410   35.207920
H   22.098770   91.021637   99.688370
H   51.120628   65.179817   39.052597
H   25.893835   60.376343   73.078499
H   61.759277   59.196484   10.822083
H   61.207737   45.603260   98.348953
