200
TIME:    0.826, STEP:   826
H   27.477606   60.530186   25.359814
H   33.187073   41.433090   13.686849
H    5.855630   94.787277   74.211845
H   37.595413   83.823067   29.175941
H    8.988431   98.581329   45.233231
H   70.554993   36.910034   48.204666
H   11.849319   54.888344   60.993847
H   16.020559   14.190024    4.272081
H   11.226057   78.721054   33.423954
H   90.232895   66.689888   72.958290
H   32.618748    7.112143   11.479820
H   33.200989   57.664024   40.664108
H   25.556820    6.456620   37.274406
H   76.706566   55.679302   70.503532
H   91.329971   76.455650   41.536751
H   12.219725    1.821686   41.681747
H   11.773583   35.163647   86.980324
H   22.647488   11.338378   33.087696
H   84.522690    8.486931   51.110291
H   91.920586   71.657188   14.754428
H   65.117683    6.010689   98.993484
H   76.983162   71.213203   47.992554
H   77.457222   58.280762   35.075462
H   21.020359   93.401817   89.748573
H   28.716980   36.272003   24.500301
H   18.176008   88.342926   87.602348
H   10.244065   70.555031   72.643112
H    7.959218   94.303185    2.273199
H   35.749783   38.717964   34.907005
H   66.568726   36.462849   78.355179
H   12.596422   75.931496   16.911263
H   21.269840   77.240707    8.030907
H   12.964195   21.594694   80.336945
H   77.032112   64.217247   48.532959
H   19.866465   65.587021   29.761114
H   13.919357   36.560890   86.196129
H    3.083589   61.781036   90.354225
H    3.929200   59.913647   88.820206
H   31.382278   25.417149   57.457382
H   84.462921   37.278713   40.805756
H   80.678673   77.849121   20.974930
H   42.506973   30.818716   22.454662
H   66.150711   74.320274   72.087791
H   35.975784   91.695168   39.706036
H   48.799416   94.173981   65.510918
H   32.813354   98.587975   49.061039
H   91.017090   97.502350    9.026755
H   75.849419   65.541664   26.581131
H    9.743079    6.514517   61.588825
H   41.146992   20.445997   80.921371
H   64.268204   63.079018    4.645264
H   98.737572   45.784161   76.140511
H   67.982628   77.664238   15.585620
H   13.684982   94.550003   90.381035
H   52.394760   63.352478   71.821526
H   97.793877   57.912819   97.837006
H    3.758136   18.962990   43.368610
H   73.810898   72.201996   94.726158
H   15.815977   85.797592   21.299351
H   29.549984   92.698647   56.161423
H   48.521652    3.943389   25.115028
H    0.468712   17.813074   53.558708
H   87.591461   37.345383   65.114929
H   38.324760   65.988380   16.751282
H   80.768402   84.815063   41.892567
H   15.752168   39.327324   43.396561
H   64.285988   10.801038   97.942116
H   94.059837   92.782234   98.873344
H   37.366302   13.772197   54.562706
H   41.863728   51.843586   50.951298
H   58.208092   86.727493   88.956055
H   15.671097    8.418998   40.662846
H   96.092422   35.793987   79.873306
H   26.956667   96.084084   77.632851
H   86.280472   10.357554   40.059021
H   68.125603   98.388359   59.048210
H   92.950745   51.765587   63.856625
H    4.850749   16.640680   27.929298
H   15.988089   55.798058   21.951624
H   59.445057   87.398773   66.470978
H   68.239296   20.198053   92.433655
H   52.403828   58.051250   69.741447
H    8.713445   20.094229   73.134102
H    5.564678   81.021553   12.950423
H   18.040642    5.520580   41.175316
H   41.176231   65.271118   15.584194
H   62.119080    4.005203    3.114795
H   70.458290   96.734314   33.544754
H   83.622330   73.483490   79.281128
H   20.509033   12.314037   48.418575
H   16.678570   39.951534   78.147995
H   79.973564   93.676910   11.154240
H   75.098175   10.253101   79.040237
H   33.750591   73.380531   85.195168
H   39.973030   48.999428   92.346016
H   45.004433   40.811050    1.509308
H   87.254723   94.009941   23.566750
H   93.483894   38.005878   54.695686
H   23.739555   63.907837   54.957947
H   77.393440    7.449138   27.393473
H   36.011501   96.628662   96.533730
H   12.362163   85.522217   62.632195
H   35.326630   15.753858   38.691364
H   50.033562   69.021423   13.433677
H   24.561934   19.771736   44.086308
H   10.622816   98.082550   16.454916
H   90.719505   36.911182   52.978199
H   61.297970   56.773804   96.082222
H   87.688881   32.692673   27.468678
H   23.191141   19.889956    8.405298
H   54.904480   90.974510    1.208145
H    9.523256   78.081238   97.186104
H   46.916206   87.074783   81.189049
H   61.239128    6.763940   59.843208
H   44.294868    6.370164    6.225598
H   90.123741   88.655434    5.370530
H    8.481488   16.694223   91.011520
H   37.798016   55.840008   22.264946
H   41.116531   79.714539   54.578381
H   86.247215   58.370541   71.203598
H   46.670662   25.653522   68.317635
H   93.005051   13.598118   65.425247
H   46.364204   97.107498   41.413441
H   95.443832   46.231827   92.203178
H   59.381798   94.443459   73.432106
H   69.191086   78.385300   14.216854
H   80.820686   51.926071   48.423447
H   62.610817   92.165977   39.951778
H   99.679161   31.271839   71.535912
H   96.148346   21.371845   76.484962
H   72.264091   64.262238   25.805706
H   59.207283   91.863449   23.146305
H   90.524239   11.104750    1.734783
H   72.186569   28.027348   56.919125
H   33.374866   90.774292   29.489105
H   46.750427    0.874774   75.048439
H   69.862885   88.057777   84.510796
H   96.216728   45.924099   73.939293
H   61.630280   52.528656   71.411491
H   43.765373   80.985771   79.174744
H   79.628845   45.835869   33.839386
H   30.261410   58.815887   59.907497
H   36.167679   67.546120   79.618729
H   30.861305    5.315435   87.835060
H   67.846695   50.332397   68.230499
H   67.411629   72.071304    1.780501
H   58.590813   94.211540   43.086025
H   26.651360   51.605537   65.462914
H   80.851044   40.325760   92.118973
H   28.142010   95.072548   68.067535
H   55.565926   71.262009   46.920315
H   58.455147   90.894600   29.788414
H    3.398657    9.927074   82.893982
H   25.400402   14.593639   61.471127
H   36.849651   69.355576   71.354225
H   80.898079   44.981922   72.090561
H   65.445236   78.458008   87.694504
H   54.377449   27.257751   23.452919
H   85.561501   99.526199   80.872429
H   57.109798   33.033844    0.729268
H   59.712135   60.602242   67.835060
H   16.090002   20.019493   30.467354
H   90.443748    9.020409   36.988392
H   32.784775   37.394573   46.127998
H   53.343300   41.972359   15.582409
H   22.009937   45.793720   59.098476
H   64.809181   88.088814   58.433910
H   24.144123   57.594330   72.244583
H    2.035922   26.264521   35.473213
H   53.215195    6.037509   83.804413
H   68.170044   12.602717   35.926895
H   25.918707   43.681046   59.257622
H   48.995308   52.273510   73.935623
H   64.010025   60.522171   87.835052
H   44.201599   90.628311   71.677727
H   18.997368   50.829193   23.856972
H   29.397778   71.227829   11.420479
H    6.923643    9.759712   72.373306
H   60.614857    7.756621   62.281628
H   58.425385   60.741081   94.651558
H   70.719131    6.189266   28.094780
H   31.047411   30.821377   91.009064
H   38.652943   89.548508   17.676849
H   64.242561   26.304661   98.748604
H   93.101013   62.917740   75.982590
H   11.528028   41.168503   86.887062
H   51.756836   94.487236   12.249521
H   62.268265   92.046577   46.031631
H   89.647560   63.786602   73.240707
H   60.269783   55.085613   73.106705
H   75.813400   11.636612   75.116768
H   42.849014    0.854314   17.160345
H   17.116852   31.465176   71.231071
H   24.866156   86.918015   45.122967
H   64.784836   28.081059   19.899418
H   76.758804   11.821375   21.537888
H   13.356486    1.538288   23.245710
H   11.878864   85.759682   30.440308
H    4.098866   13.251570   51.809090
H    1.895791   15.139116   89.607422
