100
TIME:    8.544, STEP:  8544
H   39.525871   38.495445   91.323746
H   64.511917   67.852341   16.831139
H   26.634432   88.593887   23.046494
H   82.910690   80.637199   71.838081
H   18.637529   57.596531   34.041412
H   95.522461   91.951744   24.886604
H    5.179820   38.270065   58.605091
H   48.344742   27.766603   23.711792
H   43.600044   64.821899   62.274220
H   41.393044   39.064182   42.252876
H    5.512955   10.028930   16.748533
H   29.740540   51.957104   84.758095
H   98.927017   44.829308   76.027481
H   32.032890   78.740883    7.441479
H   84.381416    6.840622   40.019463
H   57.987701   64.439476   23.814350
H   37.049446   47.089252   51.182381
H   83.770981   79.088005    3.350167
H   78.340027   36.785030   13.493701
H   62.322666   24.372770   98.047890
H   57.263649    5.634464   25.345770
H   81.501945   55.426270   91.677780
H   71.667488   25.137644   87.895859
H   25.196768   39.039276   72.523087
H   24.001656    8.577660   99.639320
H    7.321396   74.226364   86.853790
H   25.319914   87.313065   69.496506
H   11.624147   55.244740   49.192772
H   96.951530   24.270403   53.292259
H   28.607384   79.375290   62.612030
H   52.316990   88.212746   33.404991
H    5.230742   16.451519    8.303154
H   72.185562   43.362312   67.507950
H   39.106949   90.716156   11.806547
H   68.319130   12.769279   44.876934
H   15.352922   54.634277   92.565437
H   99.280174   91.634529   81.699181
H   10.853624    2.590881   25.367767
H   84.427116   95.259361   16.335297
H   58.443367   12.322352   10.258309
H   51.329391   49.346275   43.637417
H   80.172058   75.108459   16.147560
H   84.816864   14.740707   18.615749
H   33.780720   56.056732   16.122089
H   15.527428   94.793755   87.244072
H   67.836327   25.875748   17.872244
H    8.490140   89.489449    7.480757
H   56.709103   83.370422   97.231880
H   14.781311   24.836258    3.649289
H    5.122377   60.778584   86.136223
H   42.914921   44.775703   43.494629
H   20.367262   70.919861   13.175776
H   86.095741   71.549744    6.649862
H   78.831116   67.805099    8.839839
H   60.508980    7.359758   73.015106
H    4.237301    3.546265    1.768873
H   37.904099   43.013069   68.592934
H   89.852234   70.011818   93.480370
H   64.123405   99.782219   55.563797
H   95.203621   84.508377   20.598900
H   98.662216   81.235229   48.237911
H   95.674644   48.415726    8.765045
H   54.113636   24.255945   47.582733
H   29.740585   88.305817   95.168137
H   71.450668   78.449371   91.234116
H   76.477547   17.525627   51.372318
H    2.066932   43.749889   79.566147
H   90.173111    6.177396   74.655212
H   82.734070   35.868980   24.367615
H    3.549011   77.786636   83.721924
H   50.719242   14.066352   59.662849
H   69.688812   67.905663   82.317429
H   49.906631   95.690544   42.682552
H   42.120922    8.670547   95.498695
H   74.044373   40.895802   49.113422
H   27.642313   55.164101   21.026903
H   42.760574   86.295410   42.271744
H   33.389668   92.053703   86.298767
H   71.227791   28.422298   13.007280
H   80.519798   43.587639   84.848045
H   78.078255   17.673960   90.646149
H   82.430832   99.879593   72.212227
H   58.302406   50.004063   43.630871
H   37.962898   43.288063   83.054802
H   36.308975   14.442850   19.508389
H   54.653805   22.888428   35.104614
H   37.789295   82.133751   30.954170
H   93.440056   21.374432    6.989943
H   32.998295   18.456121   58.311897
H   10.934085   57.754715   29.644899
H   73.678368   34.781857   13.895774
H   10.468378   38.069489   96.326561
H   33.140263   83.879265   79.725220
H   73.009445   31.527454    2.907545
H    8.869446   84.410141   12.418795
H   99.620926   58.338562   26.140419
H   84.420006   58.001335   45.815605
H   21.785418    9.217755    7.359400
H    1.696730   73.697258   29.387875
H   69.910873   59.378376   74.669998
