100
TIME:    5.398, STEP:  5398
H   52.277504   26.997349   94.203995
H   51.395210   97.372437   18.466293
H   72.545135   62.257660   59.982777
H   82.382645   10.252312   44.280586
H   46.821655    5.430956   19.343136
H   44.314541   95.360039   13.328026
H   70.059700   25.836208   12.583711
H   95.614136   55.596676   12.566878
H   20.934792   67.297684   60.303314
H   27.326544   93.890648   19.068861
H   98.146225   83.442917   19.787155
H   49.815697   94.264671    8.693823
H   99.609421   35.163246   88.649345
H   87.804482   88.437721   68.031273
H   46.159157   87.856583   91.295135
H   84.481537   39.600296   84.959686
H   90.031990   39.006153   64.789581
H   16.500219   32.170208   12.403475
H   29.344116    4.804420   47.748722
H   47.084190   91.181679   83.853584
H   43.951744   18.829086   10.733696
H   79.891861   51.249908   59.588715
H   13.672618   50.720634   77.906845
H   17.505611    1.404024    6.170189
H   36.519928   58.072319   76.405312
H   21.939192   67.081940   82.813995
H   96.603027   18.088020    7.070041
H   77.073769    8.400078   45.202858
H   28.545616   38.840488    2.006551
H    7.977049   57.239250   12.514256
H   28.499966    6.105099   82.306358
H    6.590294    3.373082   99.544182
H   50.585697   73.539070   84.091423
H    6.179395   79.028282   44.341423
H   46.592148   50.872726   53.427658
H   41.876225    8.222975    2.455524
H   97.537781    6.848438   33.806499
H   40.882450   60.170498    3.364288
H   17.220119   63.803703   21.205870
H   54.761547    6.840195   62.738972
H   66.336624   41.400757   69.520241
H   46.478996   54.124054   56.398441
H   57.736973   95.870148   91.377357
H   34.662975    3.248042    8.524268
H   88.419106   18.915215   18.031950
H    8.444860   65.875412    5.091139
H   83.906540   18.399574   77.281670
H   56.527699   50.967621    2.575595
H   22.819717   85.387512   29.145065
H   39.090038   12.892363    6.121869
H   43.132786   48.501633   10.330579
H   67.465187   62.846310   19.692848
H   20.842228   53.308167   89.361656
H   51.684380   19.128624   70.015343
H   10.997955   31.659594   46.260883
H    0.318905    6.855551    8.866150
H   38.461258   33.789909   69.382149
H   24.109184   67.113167   74.514999
H   16.006048   66.847893   97.075432
H    2.807446   42.696812   10.078621
H    0.210150   27.540432   93.525810
H    7.331698   77.698257   51.113091
H   40.530682   38.933640   63.313385
H   13.710135   71.168335   80.584656
H   46.579109   29.714455   98.260857
H   69.738335   73.922539   65.355217
H   54.477020   34.985683   27.678261
H    7.488984   26.255083   24.258215
H   25.937391   61.920479   21.678993
H   39.748596   19.645508   90.366486
H   50.622154   28.120667   97.394112
H   28.877647   72.375793   51.838776
H   55.031830   51.297897   23.342873
H   11.379467    7.780025   82.422997
H   22.430986   36.336010   10.602821
H   53.272545   53.534821   32.712887
H   57.059101   58.684292   86.514656
H   85.588181   97.757988   12.550208
H   20.367344   37.663097   77.909538
H   34.798897   14.963752   55.878693
H   16.502115   85.126450    2.615233
H   46.345955   79.477692   35.398453
H   59.311653   97.393005   44.022312
H   21.524076   74.077560   70.392365
H   89.490929   11.236054   24.476723
H   27.055805    7.330848   16.636902
H   27.674948   10.874359   80.940948
H   42.843681   73.120911   39.608856
H   67.707138   93.620659   84.042122
H   89.082855   87.186935   17.183401
H   44.931084   64.906433   47.457684
H   77.696236    1.460903   36.380440
H   31.475557   89.486885   36.440205
H   68.963081   40.663525   90.778053
H   63.263252   66.210625   40.125584
H   39.774277   82.570831   88.635056
H   34.134117   77.460915   26.745377
H   26.679159   62.198425   69.653114
H   51.564758   60.118954   92.897438
H   74.500763   40.112522   77.734604
