100
TIME:    4.682, STEP:  4682
H    0.698368   92.658150   94.859512
H   71.169991   58.575958   73.321777
H   60.234001   10.746028   68.386940
H   82.262466   39.752617   83.526985
H   53.234802   48.040451   38.755600
H   55.420101   96.135735   42.420452
H    7.587385   77.489212   56.591503
H   51.890327   93.654877   78.308571
H   38.535439   36.138260    5.371086
H   46.893089   83.609947   91.031006
H   64.746796   54.632923   88.755508
H   77.142693   58.375084   59.659065
H   45.298965   78.460182   59.794922
H   23.255856   90.644630   13.541781
H   37.451698   51.812134   25.712357
H   13.270805    2.224117   44.394470
H   47.608589   91.649063   99.609276
H    1.189501   67.005974   37.223583
H   18.192123   74.770020   10.029146
H   66.373466    6.388521   35.104927
H   86.440208   90.109161   30.167061
H   11.248245   50.299408   20.562698
H   23.232582   56.543816   98.391769
H   84.032944   92.834900   59.347954
H   62.128815   14.853073   71.117470
H   25.203123   88.244232   50.143742
H   58.345619   47.852703   92.864784
H   37.488331   74.979645   21.533213
H   12.976808   73.879723   35.850807
H   80.522232   74.960075   55.594002
H    0.320180   41.899418   38.954002
H   61.381542   23.154037   65.827858
H    0.150379   25.924597   19.588491
H   75.926971   44.645325   74.506157
H   64.389450    4.996754    9.830276
H   79.636063   52.143147    4.707726
H   28.864058   33.071762   77.388657
H   70.474800   73.271523   52.836330
H   47.444942   79.405022   90.591980
H   22.201712   73.870689    6.403940
H   15.270267   16.835234   52.651592
H   10.829288   21.988157   22.764925
H   51.569645   91.576508   39.659592
H   80.381821   91.233795   38.516457
H   50.526356   47.162560   56.762104
H   17.683483   52.218800    2.180695
H   78.312790   79.460655   70.409660
H   56.489460   43.593048   58.273552
H    1.892120   44.685955   57.708969
H   24.073223    1.994383   56.197975
H   43.187412   17.626637    2.782566
H   32.668129   29.284395   66.698608
H    5.990120   49.156555   30.945379
H   68.264915   30.813225   38.419395
H   68.007141   68.908455   40.170033
H   99.424454    7.608713   33.240479
H   93.070816   54.449638    1.284514
H   77.424210   34.730858   92.956894
H   59.535004   36.595581   52.044044
H   50.054256   87.661957   30.443367
H   55.044983   60.835629   49.349617
H   32.741295   84.362686   83.508759
H   91.921272   87.791550   12.411674
H   64.545448   67.268005    0.020759
H   18.158289   86.900604   31.583773
H   13.722740    9.516783   23.019705
H   11.922705   10.232347   93.108566
H   56.948021   85.305435   90.029274
H   90.251907   13.367661   66.587097
H   25.243998   83.633789   91.874176
H   73.357689   76.836548    5.982934
H   87.914825   96.138306   99.415459
H    1.715695   86.715736   41.702827
H   27.139462   53.094135   24.964745
H   87.909309   35.314495   56.325527
H   36.343803    7.644572   80.889877
H   92.050095   20.741360   73.852242
H   51.949200   44.576290   73.010170
H   86.031868   39.766216   69.923149
H   69.911041   53.962971   17.562614
H    2.491474   77.719101   59.820965
H   92.620949   74.804581   95.271141
H   14.020853   85.418884   75.834351
H   72.263123   12.807732   35.788445
H   24.354944   56.024147   93.885109
H   43.536610   81.032906   66.915482
H   79.854912   62.933380   46.799408
H   31.318689   30.441885   47.052422
H   52.848740   33.485374   89.898079
H   52.387470   16.644615   91.587921
H   15.629447   26.246750   32.337078
H   24.719229   47.610458   22.740076
H   85.578865   68.003090   81.070786
H   99.760178   97.230209   42.501614
H   75.641609   30.344597   23.673473
H   80.635574   10.844820   25.617760
H   90.967491   36.370892   67.922806
H   24.051626   56.102112   81.113747
H   85.673523   57.032558   52.871170
H   30.028063   58.483402   46.708729
