100
TIME:    5.884, STEP:  5884
H   19.411516   82.429436   93.759048
H   37.972664   23.708754   49.111149
H   80.902710   97.223022   54.276340
H   82.464218   90.228790   17.640427
H   42.468597   44.385971    6.166471
H   36.776409   94.833519   61.459423
H   44.589352   58.654705   50.589542
H   57.415497   97.643356   67.945396
H    8.987984   20.570908   29.709688
H   14.048189    0.868960   38.100132
H   52.939682    2.998211   72.972191
H   31.265144   18.624882   74.099632
H   68.596664    5.772888   40.357841
H   63.740303   86.939735    5.014203
H   52.069527   44.444656   67.935455
H   64.940979   97.092751   44.617889
H   50.950874   71.150642    9.032080
H   26.893423    8.523178   95.556190
H   36.912563   25.194010   73.353027
H   33.991646   80.858925   16.942652
H   15.111809   70.447205   97.542564
H   26.485153   51.895081   18.201294
H    7.182950   46.768028   64.002274
H   72.350243    7.217989   70.077225
H   19.138733   19.528847   79.994545
H   19.723730   52.714676   37.112778
H   54.695679   97.885208   16.713438
H   36.067081   31.084923   61.269127
H   39.113091   82.934662   79.032623
H   26.611427   45.210869   51.149490
H   47.628609   49.684772   43.855583
H   37.276493   89.943939   54.552696
H   84.818352   37.980446   27.874144
H   26.715076   34.489159   23.867216
H   34.511856   14.134140   83.022675
H   84.123871   46.289101    0.927101
H   44.151001   89.049927   72.101540
H   20.796822   51.275280   37.658802
H   96.705566   53.213982   74.109077
H    8.986765   61.343800    0.974864
H   33.121384   58.075119   80.970192
H    4.342460   64.677246   80.347466
H   61.923176   98.784546   26.481903
H    3.631372   11.405661   56.041595
H   46.262005   99.740952   59.620220
H    2.173335   75.145126    7.065588
H   87.703415   44.830338   81.946190
H   56.553654   55.973267   32.646473
H   37.024628   45.136444    9.758086
H   49.283016   20.289595   72.128586
H   43.097569    1.580894   15.453950
H   91.084419   17.747883   87.788002
H   30.923969   56.126160   61.136852
H   40.430946   11.198018   91.461754
H   72.302025   74.251175   50.395176
H    0.924267    6.344326   92.321548
H   69.270714   19.766685   15.604950
H   87.921051   21.216520   61.997177
H   54.334465   87.382164   59.766685
H   70.734482   80.052170   96.255638
H   30.868328    4.939468   55.632038
H   90.083260   73.174637   29.121620
H   73.526085    5.769129   29.986908
H   47.083801   73.815765   67.391998
H   65.870880   90.898788   43.520618
H   39.882439   49.761955   94.091331
H   15.484108   51.786114   51.142105
H   73.917580   54.049778   47.491825
H   50.161007   26.999611   91.197998
H   49.593033   44.090660   89.343109
H   35.189934   95.053299   91.565315
H   88.804459   56.246490   87.420914
H   23.343731   27.259674   10.880669
H    0.682145   77.019981   53.545982
H   45.861874   37.029385   47.445450
H   64.763039   84.682304    0.011592
H    1.183583   16.559683   95.109535
H    8.421351   65.981407   39.391472
H   43.671406   36.235561   83.330467
H   10.968302   88.489967   14.009212
H   26.012842   90.154343   31.661371
H   82.822342   82.629395   94.744011
H   90.050591    5.520255   90.305740
H   54.958664   15.665562   26.004734
H   65.827202   80.837746   77.364624
H   15.869114   25.182465   50.386078
H   60.133781   75.538048    4.115284
H   50.659904   34.229763   34.569839
H   77.792587   66.560509   80.067268
H   46.114330   67.194016   34.556427
H   64.820183   91.150848   57.721111
H   13.655313   38.011978   45.639030
H   62.629211    4.067274   74.023331
H   15.933714   70.148628   23.548006
H   54.861183   22.676525   51.293736
H   79.915848   63.378815   63.532669
H   95.558434    5.351454   98.794800
H   26.919847   77.598007   60.758095
H   28.412720   62.213909   52.191193
H    4.689909   27.642254   30.916218
