100
TIME:    8.094, STEP:  8094
H   69.958000   79.762840   91.735733
H   76.940201   43.466671   88.457840
H   18.899370   56.218552   28.328514
H   82.835159   99.176628   96.502388
H   22.669855   21.527042   46.243103
H    2.499734   92.439262   80.322334
H   28.764034    7.882571   23.414509
H   83.713852   88.835960   65.030602
H   54.661903    8.087663   90.598557
H   53.683998   32.602848   24.632835
H   47.370865   91.922409   60.093636
H   46.916977   29.400799   16.789307
H   27.622322   72.066116   20.747847
H   54.314537   80.127907   73.197746
H   78.915718   47.036850   61.659096
H   76.080811    3.798073   61.168243
H   73.235664   17.326603   10.217107
H   74.151077    0.985106   18.948460
H   71.329376   17.905712   89.785675
H   74.448349   33.928814   67.409767
H   83.967293   50.434628   37.558697
H   38.360004   54.828888   29.999390
H   77.675636   28.795748    0.770517
H   67.009521   33.655975    5.942513
H   40.095772   44.266060   96.315956
H    9.443508   87.492355   29.200668
H   64.125381    6.018018   60.568798
H   49.593033   34.240253   34.316597
H   87.166832   83.443161   74.564537
H   11.353468   90.512680   26.838047
H   34.604969   47.859962   69.007561
H   76.817436   28.883236   49.961937
H   40.487461   76.286964   26.968397
H   20.092659   31.955818   30.763113
H   79.518318   46.840630   17.496946
H   76.235397   19.385946   93.979927
H   56.118267    8.114820   46.240810
H   29.452896   10.826372   93.613045
H    3.420246    5.063791   59.943535
H    0.829503   54.450760   74.854370
H   82.084244   33.907051   33.035610
H   18.095848   73.343781   93.173729
H   80.944183   12.041332   86.111488
H   62.513401   48.500198   72.123077
H   54.560593   12.545841   48.735634
H   73.645348   17.294395   16.044050
H    4.972068   65.017403    3.159312
H   56.681637   78.735565   69.388405
H    1.628412   62.103943   21.600506
H   95.675537   53.929295   17.599609
H   42.945820   88.219765   38.749908
H   98.496475   12.675360   42.716278
H   76.764229   68.940491   32.785255
H   89.254395   75.145340   88.982803
H   96.338142   67.925232   69.190491
H    3.676826    4.019621   17.087936
H    9.377212   55.997536   25.794319
H   23.359743   12.508741    5.071391
H   28.630867   80.769005   90.109772
H   24.898621   49.920643   33.397972
H   70.276291    2.163921   83.323952
H   11.646065   52.604263   29.126106
H   23.561817   54.963165   78.440582
H   98.839775   85.854492    7.385368
H   53.589020   14.389654   49.328140
H    4.121666   39.896538   24.764805
H   38.172119   28.193516   57.840679
H   21.257988   80.441582   53.142609
H   60.307663   68.203117   52.592178
H   94.409676   55.183605   84.676361
H   65.011528   44.686356   65.059883
H    6.746621   82.847069   49.332508
H   79.246994   17.950060   54.221630
H   52.025784   37.150578   22.235369
H   52.366974   40.233189   14.994034
H   17.002741   26.321896   51.305161
H    1.890400   25.244087   34.289490
H   12.249833   21.476467   61.442554
H   49.648804   29.744091    7.985327
H    2.588452   68.100883   23.615761
H   69.268593   13.018502   63.750244
H   48.663162   96.961349    9.860474
H   29.837648   42.478428    0.773964
H    7.004102    4.780018   24.155636
H   58.219833   42.591930   63.130486
H   65.011520    6.359153    3.855046
H    7.734815   14.852715    9.496498
H   86.202812   57.385048   11.655792
H   23.658382   43.510887   61.992317
H   50.720959   76.267838   13.558641
H   55.262531   10.484710    4.392437
H   77.172935    4.225887   87.750359
H    4.294579   70.379814   44.926025
H   29.519945    4.226490   72.564781
H   16.650856   24.718254    2.078772
H   62.452805   76.108948   49.383369
H   20.138716   32.176598   71.695274
H   22.654024   86.950676   16.393938
H   23.133354   71.754051   67.081001
H   41.960239   70.926376   18.019062
