100
TIME:    0.546, STEP:   546
H   80.398842   71.950356   98.646133
H   86.082222   34.348118   12.441756
H   89.145477   13.185536   16.928932
H   81.568253   10.154463   10.234599
H   90.280579   16.521828   50.900627
H   19.549652    0.619396   32.817539
H   24.355061   98.205254   33.150684
H   76.971771   35.837734   58.063019
H   40.206276   33.797806   65.719704
H   59.919258   24.225174   29.070734
H   49.467438   88.212143   87.155876
H   35.001400   51.058784   54.063957
H    8.531875   28.673782   70.860283
H   28.047047    3.393824   98.789955
H   87.143196   21.252874   24.526224
H   79.570404   63.981205   87.717270
H   80.168968   18.104843   23.066881
H   12.812053   68.148651   80.617477
H   53.766388    1.256942   92.128754
H   77.869667   94.084290   53.437248
H   31.876129    1.860637   42.423676
H   14.701989   44.820595   72.765388
H   78.454140   90.181633   16.728050
H   68.312210   43.230167   66.525253
H   10.056002   42.872608   40.590530
H   44.155430   11.340802   37.996834
H   14.996195   19.780071   10.800879
H   86.471062   81.924622   84.822098
H   23.043503   98.629692   31.361839
H   21.929358   77.326279   26.793701
H   37.579838   71.005226   66.205986
H    0.232259   37.426094   48.718117
H    8.816814   28.533880   46.984947
H    1.171566   23.684937   48.748772
H   67.200142   17.646927   57.974846
H   20.027763   27.376925   18.765623
H   32.167835   84.539894   51.487926
H   41.422729   48.960857   60.969845
H   26.173717   68.852501   89.795059
H   11.766693   61.069408   80.992668
H   97.929489   74.914497   55.205204
H   82.549797   36.362740   28.452017
H   15.943866   66.774139   40.911171
H   44.493240   21.921766   34.116951
H    9.294388   10.349566    2.829782
H   70.978142   73.468315   85.459435
H   41.845325   55.195667   32.288765
H   56.268574    1.004929    2.361340
H   80.989616   87.229660   22.693426
H   37.341152   39.059864   45.476280
H   43.502964   16.930792   59.173817
H   31.666704   13.073891   38.218391
H   20.205217   25.174622   71.160316
H   64.045319   98.293709   55.909748
H   97.291977    6.369693    5.039236
H   94.249405   11.958124   74.039673
H   30.865746   73.792305    7.916594
H   85.402527   25.324028   99.490799
H   33.338638   61.838470   69.567734
H   22.988647   69.756073   48.080040
H   94.142410   53.178276   71.824432
H   79.532532   22.863266   70.651489
H   11.267338   69.920387   96.100197
H   80.532600   44.764587   12.315512
H   53.995049   17.235725   46.409393
H   67.803719   15.129810   78.469643
H   43.762352   67.237030   93.422592
H   42.649910   48.763779   92.304558
H   84.114891   10.554237   25.988003
H   41.446785   75.606590    0.582608
H    4.693655   58.254261   55.599003
H   28.947157   33.404945   96.596809
H   71.391495   91.299751   47.748997
H   18.173065   14.827366   70.758202
H   88.496750   29.420591   42.788746
H   38.566982   42.566322   59.189648
H   16.527874   79.221306    0.695506
H   57.632401   15.018764   44.594349
H   87.723503   51.903172   23.776550
H   72.748642   79.218727   73.882812
H   21.566631   34.930279   12.621973
H   82.290230   47.793350   41.122849
H   52.342464   16.370699   81.903717
H   87.729462   58.883518   13.559059
H   25.744184   14.730538   94.823982
H   38.726315   29.109337   79.699089
H    3.620837   63.654274   49.578518
H   64.744690   61.579903   90.064186
H   67.013863   63.771690   23.733444
H   18.062424   86.819229   43.731304
H   46.367130    2.914734   44.992260
H   18.685427   36.570091   43.926826
H   20.316147   43.990433   61.154900
H    0.000038   46.352081   63.631199
H   47.152287    0.821420   28.632450
H   39.018967   74.170280   39.247444
H   19.263514   99.014397    5.787882
H    8.869884   20.886536   47.299698
H   82.701958   39.203884   99.316658
H   73.149918   64.680748   45.098618
