100
TIME:    7.888, STEP:  7888
H   83.889153   98.654137   91.924332
H   82.629593   32.303204   75.469681
H   15.358431   41.397842   30.746506
H   82.800583    7.664280    7.793873
H   24.515764    5.015269   51.828766
H    5.694516   92.662437   59.921936
H   39.559971   93.972565    7.305042
H   99.905045   71.013390   83.943901
H   59.725777   27.894291    3.564958
H   59.310524   29.644991   16.566315
H   66.532486   83.633499   79.937042
H   54.779968   19.075024   31.452065
H   40.758217   84.535629   41.219090
H   64.514580   80.762856   57.521404
H   76.413643   65.437790   71.566437
H   84.363434   21.815796   78.267853
H   89.800911    3.701630   91.464111
H   69.747299   11.008863   26.089275
H   68.120056    9.263181   78.931824
H   79.999435   38.302731   53.384315
H   96.191628   70.942627   43.149075
H   18.610582   54.555420   47.542206
H   80.426033   30.470346    6.664618
H   86.149139   31.191622   21.242023
H   47.463692   60.603416   94.794594
H   10.414791   93.565231   48.586922
H   81.888229   14.581529   56.480923
H   66.974236   24.624868   27.507132
H   82.687614   64.753036   84.302513
H    3.454729   95.611130   10.462185
H   26.497332   29.388187   85.305626
H   63.810421   34.574200   69.032402
H   25.976694   91.359138    8.410291
H   11.388255   50.834541   39.441681
H   84.645058   62.437737    4.963294
H   58.327961    3.250542   94.627449
H   36.360989   15.659552   30.008757
H   37.966789   14.596380   79.075233
H   12.115918    9.551653   79.906700
H   20.232357   73.735748   58.646942
H   96.163132   26.839315   28.182341
H   35.456352   72.535950   82.656212
H   79.171356   10.805618   71.231056
H   75.667496   45.042137   51.981678
H   72.429482   20.673038   31.107899
H   76.304588   13.366042   15.207144
H    3.361711   53.814644    1.180893
H   56.669064   76.613831   56.642284
H   95.606209   79.165657   29.817905
H   91.350342   50.793842   32.003044
H   42.959965    8.107805   36.577881
H   88.485031   31.790617   56.238800
H   72.492470   67.746033   44.748695
H   94.025940   78.505539   79.892349
H   12.740456   49.871971   67.439667
H    3.420254    4.236313   24.100662
H   96.317627   61.941536    6.201867
H   38.698654   31.963476   10.377692
H   12.383881   72.065178    5.924065
H   38.491867   34.086216   39.257103
H   57.281841   11.743553   99.386269
H   18.957405   54.521683   38.447350
H    9.576442   69.020050   92.566620
H   84.694878   84.732330   12.978518
H   45.411697   30.842527   30.144442
H   16.775848   50.137444   12.584367
H   54.699646   21.071560   47.895245
H   35.487755   68.660454   43.294617
H   50.040039   83.004967   65.512573
H   90.225929   44.837399   85.113281
H   71.552757   58.702820   67.530525
H   23.710068   89.686913   34.233616
H   92.678360   28.139887   59.503963
H   56.560009   50.187458   34.474792
H   42.443542   39.929859   99.375275
H   12.132493   13.119205   65.165718
H   83.181358   43.074516   30.635683
H    2.572648   34.945553   50.065342
H   39.770950   30.349178    5.686388
H   12.690568   79.322502   41.362892
H   65.235725   10.887338   51.437897
H   33.205933   95.625443   27.094460
H   16.807840   39.033360   81.156509
H   92.831306   87.152222   42.969921
H   68.250137   55.477932   83.099937
H   69.751633   98.792542   89.549759
H   93.976463   29.830620   99.673531
H   82.889763   73.869202   13.791672
H   19.382694   54.980827   63.677132
H   68.934448   84.742203    6.194995
H   46.832172   99.361671    0.041917
H   61.931019   88.732651   83.824364
H   91.089600   64.200066   28.995729
H    9.611002   91.728722   58.674496
H   20.213013   43.171059   97.345123
H   45.438065   84.243835   60.023476
H   36.489647   20.355381   83.542412
H   23.051653   76.756920   20.529749
H   32.946770   70.864494   84.334633
H   29.165392   76.213425   37.864353
