100
TIME:    6.750, STEP:  6750
H   60.847244    3.013615   92.966202
H   14.057602   70.637733    3.713911
H   95.795013   59.525887   44.108082
H   82.609573   54.550690   70.173584
H   34.711914   13.799604   82.685486
H   23.344265   93.895317   47.221622
H   99.203476   17.129345   18.311945
H   89.349602   72.562012   88.431099
H   87.699989   37.308487   75.199196
H   90.392982   13.304636   72.007545
H   72.386475   37.843311   89.555321
H   98.210434   62.033237   12.456852
H   13.335251   53.403652   54.307549
H   20.861370   84.270485   70.918892
H   62.591499   67.089561   26.295330
H   30.121616   21.349464   72.731934
H   81.312202   28.430981   87.867470
H   45.412998   66.384064   65.533730
H   50.397564   61.526207   18.978718
H   10.662132   62.465435   75.904015
H   63.722153   84.233490   74.034660
H    9.509415   53.044708   44.453415
H   95.619972   39.724907   39.225815
H   91.885551   17.577852    5.759274
H   88.166084   50.851959   86.390175
H   15.776014   27.112335   55.676682
H   80.019295   61.889580   33.898388
H   62.995316   71.506889   89.891525
H   57.943199   61.504742   38.095306
H   59.817951   23.777580   19.994129
H   81.710976   27.341454   75.340492
H   91.956482   66.013184   74.382759
H   45.818348   74.620354    5.890263
H   63.305428   55.125473   87.385071
H   12.967266   48.600319   35.726967
H   59.403530   14.117555   98.204536
H   27.212166   57.336060   40.338840
H   85.002419   35.424953   98.771217
H   60.154636   34.344231   90.187454
H   27.419220   80.271210   69.111435
H   73.937057   87.792336    1.372687
H   31.360840   68.073273   24.559925
H   69.377777    3.979197   89.033836
H   48.332546   25.941183   40.714821
H   71.142448   65.569260   33.726383
H   90.994957   91.662766   10.583845
H   94.469040   91.925430   90.257866
H   56.599903   64.892792   86.229691
H   62.336258   73.414345   75.215042
H   67.456787   33.472752   11.571528
H   43.038105   17.974604   24.581696
H   33.176205   37.389732   30.940895
H   48.888554   61.147522   10.838728
H   20.378532   97.068192   29.674412
H    3.349474   50.143135   57.762043
H    2.002876    5.433378   62.840866
H   24.172915   94.777809   97.968513
H   23.436628   39.433601   39.691757
H   22.635460   23.975643   93.286171
H   13.589209   46.616192   71.624535
H   85.495537   64.663467   88.112991
H   59.347237   65.114029   89.937408
H   32.317585   46.675453   70.602692
H    6.549632   78.533203   43.878437
H    0.240812   21.732582   24.167330
H   86.684387    6.710737   45.296524
H   46.003647   81.726593   92.951553
H   14.097244    3.576478   88.891632
H   93.320412   64.774384   36.884701
H   67.135948   87.647392   87.519562
H    7.688936   36.131577   81.179024
H   17.399038   27.505798   50.825874
H   66.878555   84.424072   88.677795
H   81.614403   22.212296    2.092059
H   87.615593   38.264904   13.093716
H   85.231697   40.184566   41.739891
H   79.826752   41.571407   10.453791
H   49.107601    9.353884   87.216743
H   85.200127   33.691845   92.989983
H   68.498703   41.315590   39.402580
H   42.959938   99.113510   83.421021
H   47.811012   88.245529   22.299786
H   44.828369   20.001867   72.779831
H   14.539281   89.771019   46.908405
H   23.660318   26.668549   93.415672
H   95.937302   56.994728   10.523761
H   17.972033   12.572717   45.409462
H   64.587578   64.933228   25.590851
H   95.763779   18.343153   72.984505
H   69.548843   31.562756   65.510803
H    0.260433   37.912384   76.009445
H   77.730545    3.144222   62.136848
H   18.141331   30.052822   40.992439
H   99.628731   22.687464   81.941162
H   39.889595   45.106224   71.194183
H   51.443924   29.180967   18.802902
H   26.818876   55.048309   48.990814
H   25.248262   20.449669   43.374931
H   87.158745   65.950340   79.654198
H   58.478298    5.419518   47.492031
