100
TIME:    2.663, STEP:  2663
H   37.234039   77.810692   96.707962
H   27.194115   49.129135   45.981190
H   25.529356   65.490906   92.077904
H   81.923584   22.934973   94.194641
H   71.318802   86.208710   93.500519
H   86.724739   98.323067   42.471813
H   13.403072   41.156578   98.702919
H   10.579750   18.985704   63.687222
H   88.166313   30.256897   32.460293
H    2.069021   54.620094   11.968837
H   52.549255   73.394165   83.235580
H   54.203041   57.173065    3.374242
H   73.868050    0.592011   60.447624
H   23.224892   96.867744   59.896679
H   12.892132   32.156982   22.763857
H   94.450333   78.813324   11.989084
H    9.964551   58.106194   15.811746
H   58.051918   65.198936    7.222660
H   86.742592   90.068756    3.660869
H   20.773613   49.261753   97.642097
H    6.250455   91.106964   84.964340
H   17.684753   47.619156   92.499252
H   50.189140   72.964211   56.159027
H   71.619949   68.620209    9.295560
H   34.338982   74.972626   56.209709
H   34.448421   48.259342   39.568604
H   32.445015   31.778788   52.810741
H    7.846138   80.739555   54.798008
H   69.075073   90.700417   31.290030
H    3.105242   24.931046   95.089867
H   20.860323   60.850994   98.690865
H   33.900520   78.935127   52.736809
H   57.936687   73.644646   37.701027
H   90.618843   29.674606   59.562897
H   14.576224   57.617767   86.886787
H    4.091516   93.676994   11.485692
H   35.215553    7.010435   18.299131
H   53.923073   10.213581   10.362698
H   32.666786   23.394026   86.247986
H   12.368952   62.883049   47.553921
H   53.253345   47.556393    5.084750
H   92.285881   31.374962   27.910765
H   34.178814   79.469162   93.825066
H    9.308935   57.404160   41.107948
H   25.660421   26.823032   83.990822
H   43.731220   13.709431   93.982491
H   62.537930   69.660614   51.021439
H   56.381634   22.801397   33.349251
H   42.870918   11.900394   38.245941
H   81.734978   71.278313   97.411774
H   43.341450   12.547945   81.495087
H   34.548771   16.632313   99.239799
H   64.120903   37.449707   48.207237
H   15.025745   63.761841   49.326874
H   28.758812   91.957779   23.002089
H   96.898239    9.733265    1.972000
H   65.072899   12.707385    9.260935
H   27.764008   25.400276   44.963577
H    0.302949   51.287289    7.042868
H   83.288116   32.475124   87.868538
H   27.685080   54.728764    6.768096
H    4.399055    3.155891   74.863235
H   54.863224   25.556883   50.866135
H   25.902407   56.280556   54.842693
H   38.021076   48.155071   43.561356
H   37.752815    9.887245    3.642576
H   73.910927   40.429241   95.631241
H   96.413994   69.836914   93.509399
H   89.625328   58.440132   93.213234
H   84.336487   82.084541   96.125610
H   37.470970   14.208945   30.205166
H   54.389931   63.145309   51.594780
H   33.359604   86.583763   93.466057
H   71.587364   80.860046   44.938545
H   90.565697   32.433994    3.270987
H   88.612312   78.246696   16.743805
H    8.737738   95.735489   38.146351
H   57.092907   76.594368   61.509113
H   89.213577   45.696659   47.391518
H   68.926796   63.923069   91.501450
H   62.995045   56.831615   39.149570
H   41.132042   61.618973   64.099098
H   86.288559   51.706451   83.537537
H   33.360851   40.037933   20.194153
H   22.663528   82.312393   89.604530
H   90.001099    6.870010   26.710155
H   45.010475    9.731140   50.525467
H   98.824203   92.088333   68.050697
H   10.947142   45.900246    6.413088
H   30.893234   99.710403   19.414131
H   33.003571   17.226551   89.699417
H   75.326111   95.780571   84.265053
H   56.147083    7.426781   24.932400
H    4.616208   74.764290    6.371500
H   10.548416   11.193710   77.279991
H   13.874511   90.572823   29.901718
H   51.225754   20.504436   84.037849
H   16.642424   38.911530   13.426031
H   81.854362   48.329441   21.983551
H    4.622604   10.301891   41.200958
