100
TIME:    7.118, STEP:  7118
H   35.960526   69.266151   92.629288
H    3.895291   90.577431   26.917526
H    2.122555   86.001717   39.787159
H   82.671341   39.389557   50.001713
H   31.415522   43.296429   72.707214
H   17.636379   93.496635   83.665787
H   79.915146   41.979565   47.090023
H   60.425529    4.400078   54.643456
H   78.653847    1.926626   52.034901
H   80.341713   18.588930   86.416237
H   38.156006   52.650684   54.107132
H   84.166733   80.479279   86.262367
H   89.858406   31.141544   17.739574
H    2.640836   83.136208   98.922066
H   67.061226   34.217979    8.598919
H   15.324070   89.162598   42.185059
H   51.719917   52.770214   21.367975
H   53.282749   48.477081   52.778389
H   56.127911   76.962936   38.365314
H    0.748435   54.651836    0.959180
H   41.884506   47.598442   64.045158
H   44.789932   53.533234   13.114792
H   90.706642   36.731987   28.696810
H   57.693871   21.980196   78.429550
H   75.003975   21.666779   89.107948
H   14.045315   16.262695   21.047068
H   48.286213   46.590874   41.201000
H   31.945873   88.683891    2.054477
H   65.944908   94.892921   20.700224
H   73.929031   14.669567   49.248924
H   96.192665   60.339577   46.225502
H   15.191977   55.846249   40.315132
H   71.740242   47.695305   39.042610
H   78.854012   21.400375   71.881409
H    3.808278   20.737526   58.117714
H   91.393517   42.941376   97.047798
H   62.506912   43.859497   69.335907
H   69.790749   28.689480   24.739113
H   44.620090   26.326670   54.525101
H   92.757515   45.820263   98.063583
H   48.786423    0.420915   10.041954
H    0.347562   69.516388   43.346249
H   72.544769    6.186687   15.615120
H   24.835598   32.117943   76.695427
H   39.222023   51.050770   65.216621
H   86.244469   98.681808   12.078901
H   97.344040   11.938848   93.789848
H   56.622066   68.683075    8.999220
H   73.094612   42.936794   60.536156
H   75.183350   39.073948   85.841682
H   43.012836   82.446365   28.460419
H   51.063534    3.240734    6.784407
H   56.522465   63.281311   89.466408
H   11.857414   91.065506   45.913467
H   74.049057   82.392632   60.892536
H    2.461220    5.046278   50.313278
H   47.501408   84.159401   32.968575
H   96.035080    4.679845   30.212976
H   51.657799   39.527035   65.035927
H   89.304497   74.901855   61.157738
H    8.709181   47.550934   59.419594
H   46.286201   61.688736   73.288239
H   57.302570   21.563541   45.367828
H   31.819611   80.537842   33.886127
H   14.847625   92.341309   58.437428
H   64.077454   88.416557   67.055557
H   16.478006   94.450714   10.718883
H   88.676689   24.623709    6.484160
H   11.661222   38.332245   13.803348
H   74.592979    6.155794   86.744659
H   96.002983   11.093108   76.765450
H   87.110451   15.262733   77.794136
H   42.884659   66.225098   79.244202
H   73.511620   98.921753   80.226440
H    5.353215   38.796055   40.993168
H   93.929695   63.771358   16.978662
H   13.248986    9.718990   16.980097
H   66.396912   85.291969    7.539151
H    2.848442   32.610912   97.094719
H   50.451340   21.268452    7.699148
H   50.161476    2.921312    5.415698
H   75.425087   90.632004   91.512550
H   68.105827   26.156164    7.824993
H   39.856533   21.261848   13.298363
H    5.742048    3.648521   57.742088
H   87.469528   70.512054   36.078842
H   42.549915   85.815880   62.957069
H   70.506035   35.484219   21.775299
H    3.400965   97.853905   69.974739
H   37.011845   16.421276   78.667297
H   15.320637   57.781891   83.780930
H    4.958818   30.820572   69.149529
H   41.730930   41.095181   69.450447
H   35.193871   45.013634    6.754786
H   33.527534   12.141991   79.650726
H   81.839188   14.650079   99.794746
H   97.609337   76.167206   27.826717
H   24.537935   38.657955   35.988091
H   69.627983   67.539452   48.830791
H   81.337242   95.975693   12.040328
