100
TIME:    8.129, STEP:  8129
H   67.591057   76.553154   91.703690
H   75.973557   45.363377   90.664566
H   19.500986   58.736633   27.917690
H   82.841034   97.734673   94.584053
H   22.356230   24.332447   45.294083
H    1.956930   92.401344   83.788368
H   26.929680   10.246043   26.151554
H   80.962921   91.864067   61.816994
H   53.801537    4.722466   88.395569
H   52.728035   33.105396   26.003361
H   44.115250   93.330719   56.722397
H   45.581032   31.155178   14.298061
H   25.390495   69.947510   17.269663
H   52.581520   80.020027   75.861092
H   79.340828   43.910477   59.976013
H   74.673569    0.736791   58.262970
H   70.421181   19.641476   13.403295
H   74.899292   99.282021   17.735214
H   71.874649   19.374104   91.629776
H   73.505203   33.185673   69.792732
H   81.890343   46.950169   36.608875
H   41.715488   54.875351   27.018814
H   77.208336   28.511229   99.769104
H   63.757622   34.074677    3.343088
H   38.843941   41.490295   96.574440
H    9.278484   86.460556   25.907001
H   61.107162    4.563078   61.263340
H   46.639961   35.873936   35.473633
H   87.927864   86.618668   72.910027
H   12.695488   89.646439   29.620354
H   35.982571   50.998352   66.238472
H   79.027367   27.916325   46.721809
H   42.952938   73.726158   30.121473
H   21.571598   28.748268   29.288713
H   78.647270   44.190636   19.626501
H   79.277924   22.127398   93.869911
H   59.475086    6.832949   48.998684
H   28.006268   10.185837   96.083061
H    1.942825    4.301291   56.551735
H   97.532806   51.174049   77.607971
H   79.692200   35.107880   33.860195
H   15.146228   73.481033   94.960686
H   81.245392   12.251284   88.639717
H   60.278637   49.087929   75.545319
H   51.524666   11.165020   51.730896
H   73.193535   17.961834   16.186243
H    5.245673   66.920784    3.495452
H   56.683773   79.096054   71.554008
H    2.651429   59.205345   20.204346
H   96.410400   54.462017   15.152400
H   42.943417   84.840782   39.118942
H    0.197460    9.427622   40.418762
H   77.490013   69.143433   30.752550
H   88.443695   74.574432   90.527298
H   93.551430   70.992325   69.487961
H    3.720419    3.982804   15.896454
H   11.596021   54.987633   29.123100
H   20.753675    9.203325    4.169835
H   31.391277   82.247810   87.422928
H   22.589088   52.610958   32.402489
H   72.484085    0.536308   80.594917
H   10.403847   52.278488   27.542492
H   25.937973   52.574860   76.040527
H    1.243120   86.045151    6.435046
H   54.978371   11.594162   52.587494
H    1.971668   38.156578   26.834278
H   35.364044   29.403557   59.530437
H   18.840309   82.443230   54.815811
H   62.052162   65.688240   50.396935
H   95.120506   56.941456   84.602127
H   63.900127   42.304726   64.640114
H    3.864511   81.684959   51.897854
H   76.964966   16.218779   53.324146
H   51.255405   34.935574   20.155882
H   54.052994   40.284725   17.647741
H   17.830263   28.565071   48.950233
H    5.069211   22.214645   34.910332
H   13.893996   19.188030   63.375576
H   51.327080   29.641285    8.375923
H    0.872080   66.194298   20.600471
H   69.953789   13.380593   65.842148
H   51.289391   97.188324    6.932382
H   32.051453   43.063755    4.107252
H    9.412034    7.775080   20.959034
H   56.515656   40.402561   59.737617
H   64.206161    7.644763    6.285607
H   10.072389   12.307863   11.165428
H   86.765709   54.584183   11.292900
H   24.384834   41.562111   61.706062
H   47.626362   74.828018   14.809738
H   56.694874   12.374539    5.131606
H   79.762581    6.858157   88.417397
H    6.538121   71.429771   47.632629
H   32.902496    6.349869   74.924782
H   16.045635   21.583069    2.882996
H   65.343658   74.726807   47.575584
H   17.360682   34.185188   69.682411
H   22.586466   88.682625   15.691252
H   21.466026   71.905190   64.149559
H   44.134121   70.028091   14.647317
