100
TIME:    6.399, STEP:  6399
H   84.584305   35.201195   93.287552
H   23.750324   51.617420   81.583351
H   89.758987   34.273125   48.229397
H   82.550659   69.011444   89.411743
H   37.855789   85.665497   92.202805
H   28.788471   94.275581   12.460327
H   17.599052   93.428185   90.863213
H   16.937515   42.196354   20.658543
H   96.328239   71.055603   97.292015
H   99.979927    8.264126   58.264469
H    5.035629   23.719976   23.365768
H   11.607666   44.439320   37.440773
H   35.733353   74.630165   89.184746
H   38.240196   85.352364   44.207355
H   58.328255   98.442619   43.174244
H   44.234421   52.049110    1.867736
H    9.537604    5.215803   55.914558
H   37.906796   83.463821   77.702187
H   44.931934   46.800339    0.487592
H   20.117859   69.920204   52.006279
H   84.550995   19.176373   83.562691
H   75.858704   52.578751   74.344330
H    0.306359   42.579567   49.268005
H   24.498260   13.378878   31.827696
H    0.720118   78.687500   83.797951
H   17.376070   37.489265   88.684013
H   10.285591   76.479263   26.933126
H   92.612991   55.123390   78.290787
H   50.311134   29.659046   54.687683
H   46.358738   32.464745   92.091110
H   67.898277   95.866646    3.110474
H   69.794037   75.712601    6.876545
H   21.093727    0.301569   74.269409
H   48.475121   87.292618    2.172368
H   21.702866   75.175972   14.370627
H   28.891474   86.625633   99.307838
H   93.546547   70.190063   12.681392
H   99.511375   41.849277   74.000481
H   74.969574   41.992363   24.201471
H   60.478298   13.130056   41.494564
H   97.925842   75.747063   93.103371
H   60.941116   66.696823    6.640667
H   66.357086    1.873522   63.679344
H   70.744843   20.049765    6.396483
H    1.590295   79.419449    3.689601
H   95.525993   84.967972    9.157854
H   91.726852   72.837234   86.889046
H   56.581158   61.277603   64.511780
H   52.077156    2.485594   89.215195
H   60.088581   28.129335   36.113647
H   43.062206   51.861526   20.882153
H   16.113945   69.960754   53.981697
H   41.607296   59.112305   31.224375
H   28.506012    2.794574   14.186675
H   31.297504   19.382446   54.776165
H    1.565706    5.802596   74.789734
H    1.921675    4.905951   64.585594
H   49.572662   72.580864   48.732407
H   94.952957    9.142968   20.231697
H   36.750587   19.636173   81.607811
H   63.354511   80.988052   15.480162
H   71.804909   68.381088    5.818285
H    8.488119   70.626747   94.671814
H   82.447922   76.621170   53.409145
H   86.310257   49.767208   91.479683
H    8.246494   24.159691   24.542662
H   74.164627   69.590271   76.005692
H   38.343163   83.502602   72.111801
H   75.828255   89.995010   58.899860
H   60.024895   69.994560   88.258667
H   18.835278   60.013245   85.388710
H   46.339970   39.154739   25.126259
H   89.764038    1.787071   97.675598
H   89.342873   44.426212   22.946436
H   70.691154   37.764133   86.485367
H   76.935509   17.688232   65.356598
H   47.948818   71.951683    4.228769
H   32.616985   32.304993   67.833977
H   68.366737   34.722843   89.074867
H   85.712357   60.435921   69.641624
H   36.091080   95.482254   62.442219
H   21.473158   85.969299   51.663593
H   22.625755   14.132085   39.352089
H   90.390633   59.735497   78.967003
H   40.751442   48.624794   27.440994
H    4.015069   44.100555   86.149094
H   94.529457   38.093361   28.672476
H   58.942528   93.019226   29.230141
H   88.479843   37.885658   75.855232
H    0.580589   46.004765   52.964439
H   85.896080   18.959843   68.596970
H   51.760098   76.745422   55.450089
H   95.641830   19.520573   13.849071
H   65.704872    1.393102   58.273727
H   45.957756   76.546585   63.128300
H   22.452789   43.041595   36.932404
H   54.679680   34.905014   69.176956
H   25.925776    3.082122   50.420532
H    3.879584   64.434639    9.053185
H   36.677372   14.426598   81.304726
