100
TIME:    7.363, STEP:  7363
H   19.392633   46.798347   92.404984
H   97.129257    3.852974   42.366169
H    6.334100    3.628116   36.910458
H   82.712463   29.295616   36.571499
H   29.220144   62.934261   66.064072
H   13.836558   93.231209    7.928349
H   67.073730   58.523869   66.249344
H   41.169014   25.595173   32.147614
H   72.631279   78.370911   36.612118
H   73.649971   22.106768   96.008980
H   15.366699   62.508854   30.508402
H   74.816986   92.759933   68.822716
H   74.235619   16.313168   93.392097
H   90.509834   82.381050   17.567219
H   70.036995   12.333366   96.816681
H    5.472503   67.734070   21.847677
H   32.018532   68.974899   43.671291
H   58.522121   36.555313   44.286606
H   59.942951   87.239807   51.272152
H   94.146622   49.449848   17.639841
H   27.345856   23.207230   57.396397
H   68.278320   53.858475   92.250839
H   87.435539   34.739418   21.686369
H   34.928864   24.911104   60.234352
H   66.241158    2.236427   90.917336
H   12.890148    9.041035   97.991173
H   27.158842   36.405594   46.062794
H   11.273545    0.119667   10.153260
H   71.272133   17.121069    9.119585
H   83.323639    8.605410   68.726006
H    5.834817   82.309860   26.841881
H   30.661465   49.077869   17.634239
H   88.996712   29.769777   61.114143
H   89.205650   98.947792   61.559677
H   97.710777    2.187631   73.023468
H   12.690842   62.130600   96.277687
H   86.006393   34.887329   88.641022
H   59.664215   24.205265   42.027359
H   34.277798   20.989164   30.782551
H   69.680351   22.883661   17.339632
H   32.042114    8.826886   15.813581
H   79.700356   70.477158   55.853077
H   74.653229    7.656347   33.310863
H    9.192045   36.230186    0.651084
H   17.970451   41.385128   86.181587
H   83.081779    3.354249   13.074251
H   99.258102   25.263451   96.141304
H   56.637020   71.206497   24.158230
H   80.257393   22.646610   50.762100
H   80.327393   42.803005   68.712318
H   42.996014   58.793488   31.042721
H   62.970425   80.507324   90.701538
H   61.604824   64.701904   75.238045
H    6.184387   87.069153   56.724930
H   54.542068    3.862533   62.976696
H    2.766367    4.788562   41.972900
H   63.032604   77.090080   56.270042
H   77.791672   81.542717   23.901617
H   70.979057   49.880543   46.228020
H   73.135902   93.732193   54.189354
H   24.164454   36.158150   40.318222
H   37.590675   59.408310   62.203568
H   73.935478    4.844779   28.567444
H   48.644283   81.872452   27.233639
H   24.572147   72.774506   81.252907
H   49.026642   76.236839   81.541870
H   96.820770    2.921525   22.548124
H   71.752937   38.635735   18.196579
H   23.872551   20.728104   98.437225
H   79.563469   18.469637   86.226791
H   88.223366   94.423264   73.827065
H   66.941353    7.118949   95.751656
H   26.910162   54.107403   72.963684
H   68.117104   83.414856   65.669098
H   17.154421   39.156811   59.569294
H   99.720482   79.472679    0.493592
H   35.500690   88.513985   21.325056
H   77.907455   69.272911   21.070017
H   14.596751   31.891270   99.827492
H   38.436111    7.921699   86.592232
H   54.957787    5.455972   20.059341
H   93.810555   92.220825   71.014885
H   83.601509   30.253454   31.158073
H   56.711124   42.227291   90.921196
H   93.812805   88.321434   33.992012
H   81.832016   79.510391   53.092316
H   58.912907   68.002388   74.639580
H   74.446312   15.878931   19.235054
H    8.485917   84.212471   67.970955
H   15.350371    6.340672   87.426376
H   25.347034   71.011223   88.954880
H   23.086336   49.247101   73.818794
H   57.435963   48.446751   88.396675
H   58.871048   59.877525   23.274546
H   29.291325   90.196609   85.280762
H    2.075187    4.975632   87.140251
H   78.162163   90.227341   13.735816
H   24.065027   50.779728   31.070044
H   57.956688   68.597420   28.308826
H   96.556282   89.687698   88.439011
