100
TIME:    7.044, STEP:  7044
H   40.964920   76.052345   92.697037
H    5.938840   86.567818   22.251595
H    0.850497   80.677773   40.656040
H   82.658920   42.438263   54.058186
H   32.078583   37.365002   74.713715
H   18.784161   93.576805   76.337601
H   83.793777   36.982510   41.303127
H   66.241783   97.998108   61.438118
H   80.472908    9.041533   56.693211
H   82.362892   17.526400   83.518837
H   45.039307   49.673115   61.234894
H   86.990738   76.770020   91.529854
H   94.577126   35.620319   25.093449
H    6.304775   83.364296   93.290993
H   66.162422   40.828026   12.157436
H   18.299664   95.634888   48.327637
H   57.670540   47.875912   14.631463
H   51.700245   52.077942   55.343254
H   54.975613   73.858902   34.466923
H    2.741951   56.223049   95.920921
H   46.275772   54.965584   66.053917
H   37.695480   53.434998   19.416580
H   91.694649   37.333824   30.814249
H   64.569786   21.094942   83.925125
H   77.650703   27.535538   88.561440
H   14.394222   18.443932   28.010820
H   54.667606   49.667244   39.732540
H   38.189514   85.229820   99.608383
H   64.335869   88.178993   24.198050
H   71.091476   16.501152   43.366051
H   93.280586   53.704124   52.080147
H   10.519693   57.890575   47.165688
H   66.528084   53.109581   32.376106
H   75.727394   28.182053   74.998993
H    5.649992   26.340370   53.615227
H   84.960747   37.145447   97.280403
H   55.409637   46.569458   63.504978
H   72.849617   30.043896   19.517357
H   47.743885   27.938814   61.696335
H   99.727760   52.748165   92.241684
H   53.843887   97.881538    8.298687
H    6.583984   69.226196   39.568676
H   71.907928    5.742790   10.270145
H   29.560528   30.875875   69.459831
H   45.640678   53.970188   58.884346
H   87.199730   97.270370   11.778265
H   96.765915    7.914275   93.079613
H   56.617550   67.920898    4.420656
H   70.931160   49.065258   63.488319
H   73.629639   37.947620   91.015450
H   43.017918   89.590500   27.680458
H   47.466625   10.107613   11.641889
H   54.987385   62.852234   93.763954
H   13.570900   92.272568   42.647964
H   79.940964   75.907921   60.263035
H    2.369053    5.124119   52.832413
H   42.810352   86.294624   25.930580
H    1.545291   11.668406   32.119247
H   45.821785   36.399853   70.716682
H   94.188072   69.214325   63.262474
H    4.041132   50.992020   65.189102
H   48.912605   62.377518   76.636169
H   52.278416   26.613384   50.442230
H   26.738152   80.134735   35.895451
H   11.910422   98.251282   51.546223
H   68.623413   92.095329   62.680099
H   22.415361   91.892059    7.145985
H   93.788353   20.391371    2.946532
H    7.972993   43.649414   18.444653
H   73.093468    2.433761   86.900482
H   98.352745   16.128128   77.652962
H   93.199959   17.725170   72.370827
H   47.709518   69.884674   81.141174
H   75.140984    3.605207   84.623352
H    1.788768   38.687092   35.382420
H   92.180641   59.028362   21.957933
H    6.528126   16.124096   15.667742
H   62.920254   90.130379    3.452266
H   99.299889   32.828274   96.269310
H   54.080429   25.299801   14.074193
H   48.713341    2.155571    0.992977
H   69.871925   90.152115   97.703682
H   63.425430   24.918615    0.777529
H   34.765759   14.929316   20.056950
H    9.345167    8.277612   64.915581
H   89.172287   67.794189   30.940079
H   37.607624   91.196281   59.428474
H   69.315910   41.406048   22.542557
H    1.865109    1.974091   70.579964
H   43.554707   19.466030   76.021698
H   12.292255   53.786392   82.218185
H   99.483566   25.255272   67.739220
H   36.987370   38.874706   63.727913
H   28.042240   40.524132    1.765141
H   34.806862   18.770668   77.950226
H   75.727097   17.572104    3.617050
H    3.483088   71.920471   32.082764
H   24.680773   34.996685   37.473488
H   73.153191   67.219902   55.029263
H   76.740471   97.874924   19.169140
