100
TIME:    2.780, STEP:  2780
H   29.321838   67.081169   96.600845
H   23.939552   55.473122   53.361530
H   27.540472   73.908493   90.705025
H   81.943222   18.114275   87.781921
H   70.270844   95.586777   90.328079
H   84.910896   98.196312   54.059162
H    7.271297   49.057327    7.852560
H    1.383780   29.107340   52.944309
H   85.290230   19.007858   25.095547
H   98.871880   56.300041   16.550753
H   41.666199   78.101944   71.965118
H   49.737167   63.037704   95.046074
H   66.425224   93.513367   48.819214
H   17.431664   96.507118   68.800270
H   14.315445   21.706404   17.139784
H   89.746124   68.580109    2.276790
H    0.555984   65.844696   26.462717
H   60.552200   59.509254    3.166061
H   88.565361   94.976486    9.824617
H   17.621704   46.777538    5.607938
H   99.307587   79.459808   81.788330
H   28.901657   47.774475   82.535614
H   48.627022   72.012657   52.811630
H   60.749390   70.023438    0.605867
H   30.154488   65.692749   57.072891
H   33.911945   44.773586   28.602392
H   22.355942   26.915243   55.132496
H   97.974083   86.200722   58.665813
H   71.619095    1.315649   25.759684
H    7.591413   22.035324    4.390990
H   25.465002   71.342804   89.434196
H   41.288002   75.701988   41.905525
H   66.178192   65.084236   48.241310
H   95.562279   18.952225   54.633743
H   11.667783   48.773499   94.011833
H   14.264478    2.867763   11.083558
H   46.436920    2.725338   27.518309
H   49.087646    8.072140   18.618870
H   27.727814   20.845095   74.909683
H    1.348889   51.929474   56.759708
H   45.257977   51.570591    7.841777
H   81.770592   36.626358   33.407303
H   35.186604   80.170776    2.276420
H    1.837899   59.365288   52.547119
H   15.511560   22.207195   94.002663
H   42.221767   15.941029   94.457375
H   63.452885   76.023346   52.145271
H   56.387882   24.006014   40.588554
H   46.290619    2.210740   33.578331
H   84.187950   73.058235   89.228058
H   43.332523    1.252056   82.728714
H   40.234882    5.775566   91.559532
H   66.547096   38.128113   41.411575
H   12.316586   61.852486   54.489899
H   19.444122    2.214318   23.994703
H   97.044632    9.610304   97.989044
H   72.490730    9.331201   20.388710
H   19.051849   14.350776   41.950027
H    9.530182   56.230724   98.060783
H   75.566788   41.468464   84.540779
H   35.065681   49.288128   97.645828
H    0.246942    2.066648   69.569885
H   62.799679   17.578028   42.839523
H   33.936714   56.917007   51.665791
H   42.665478   38.810032   54.457802
H   30.565285    4.070884   10.560307
H   64.523933   44.473789    1.279948
H   88.332039   76.528137   99.102676
H   95.456047   50.033257   85.875740
H   86.707336   87.968819   95.879242
H   33.755806    6.248166   28.801491
H   44.743179   59.262329   60.161438
H   25.730742   80.795891   90.466789
H   69.012993   73.456497   37.984886
H   96.207176   32.600918   12.140636
H   91.377708   85.744865    8.871376
H   19.360590   85.595108   40.215488
H   62.589779   68.944450   67.970383
H   94.824707   45.352993   48.697449
H   63.188911   57.550518   81.421768
H   65.284164   58.042034   46.142506
H   49.911148   62.383072   54.315773
H   93.690323   53.659546   94.681244
H   41.409779   50.049774    9.507477
H   16.966259   74.994537   78.262657
H   87.308899   11.167622   34.834957
H   52.824638    1.224271   56.104462
H    0.707506   82.720978   66.833138
H   13.375343   39.385765    5.455844
H   20.548885   94.897293   23.596592
H   37.791687   23.544205   92.170242
H   83.982925    4.578790   86.494865
H   63.654179   10.932398   33.984108
H   15.924864   81.860771   14.260175
H    8.525249    0.713309   79.968620
H   23.538223   85.952522   23.858551
H   41.938736   27.218868   77.309135
H   17.071783   39.907715   11.553944
H   76.280724   48.833782   12.183266
H   11.888687    7.296625   29.932199
