100
TIME:    0.479, STEP:   479
H   84.929848   78.094612   98.707474
H   87.945946   30.715328    8.215535
H   87.994324    8.365336   17.715622
H   81.557007   12.915033   13.907224
H   90.880692   11.151483   52.717323
H   20.588604    0.692317   26.182272
H   27.866539   93.681404   27.911196
H   82.237839   30.041584   64.214928
H   41.853264   40.239563   69.936852
H   61.750267   23.263409   26.446901
H   55.699615   85.516235   93.609901
H   37.558781   47.700401   58.833168
H   12.793622   32.727356   77.519798
H   31.364536    3.600400   93.691551
H   86.328392   27.237391   27.746847
H   82.264267   69.841255   93.278793
H   85.555672   13.674026   16.966841
H   11.380395   71.406845   82.940231
H   52.723091   98.446335   88.598618
H   79.683296   95.488983   48.866371
H   35.852005    8.530838   44.241905
H    8.277484   44.732162   78.470039
H   79.348686   90.726540   18.645191
H   74.537231   42.426609   71.500977
H   12.452108   48.186214   40.095718
H   44.462643   13.337047   44.276550
H   20.773687   22.565178    9.471327
H   92.124596   78.797287   82.607712
H   21.586670   92.550865   34.528992
H   19.360476   78.984512   21.467571
H   34.944248   64.996941   71.507835
H   96.001831   39.277039   54.920647
H    4.097315   33.435814   40.949059
H   98.340660   29.825104   51.571449
H   68.865532   22.711594   53.895203
H   14.202222   22.113668   18.996161
H   25.741676   86.993507   46.208569
H   44.191734   50.187153   56.242039
H   29.185783   70.282753   96.216370
H   18.077335   67.341698   75.721489
H    2.508266   72.615257   53.626202
H   88.571373   33.355530   25.304235
H   15.366883   66.372360   36.071930
H   48.771729   20.798983   27.565975
H   15.106129   12.992951   97.096375
H   71.833839   72.208794   85.196693
H   41.137867   51.581188   31.716253
H   56.264996    0.315082   98.215775
H   79.030815   92.778915   25.366076
H   35.935947   38.040081   50.162170
H   43.508076   23.399385   58.467381
H   28.410810   19.290989   42.617004
H   18.815348   24.786133   75.051338
H   65.596207   99.386589   52.953144
H    2.625724    0.496040    4.470688
H   94.165573   12.028538   76.320511
H   26.618439   75.725548    1.544239
H   90.391541   31.651283    1.216606
H   28.054680   59.007614   74.711121
H   27.409752   64.606552   49.985680
H   89.916061   56.293854   77.048584
H   81.910492   23.486893   73.682724
H    6.722659   74.489220    0.696644
H   75.932076   44.400124   14.134764
H   51.335434   22.586903   40.169548
H   71.919655   18.460590   74.508080
H   49.137810   64.920410   90.187912
H   47.278038   44.932053   89.101570
H   80.775932   15.368431   30.190327
H   40.089630   72.236961    0.723500
H    6.821334   62.813381   56.402561
H   34.471508   35.628532   91.691628
H   75.759949   94.614174   49.467037
H   19.647789   19.067297   74.740211
H   85.266159   29.325258   37.709766
H   36.982868   38.271988   63.697651
H   10.444701   85.028191   99.509827
H   54.484619   19.399742   40.893993
H   84.512337   52.099461   23.029476
H   76.034439   82.867455   79.654938
H   20.255482   34.237133    8.617599
H   77.263390   47.355789   46.725777
H   48.103336   15.252431   75.522278
H   83.120758   53.150242   19.678780
H   29.006723   18.921577    1.318877
H   40.268513   26.648312   75.046425
H   99.146034   68.525719   46.383709
H   63.666122   66.944115   90.760399
H   65.623482   67.502205   24.281673
H   23.986111   89.576477   41.335964
H   43.625217   99.296921   43.577343
H   13.728046   31.531008   42.650436
H   16.017467   41.983070   55.971642
H   93.524544   42.287773   59.113995
H   48.310596    6.822999   27.093063
H   33.485046   76.816093   42.708061
H   24.581465   95.169380    9.641169
H    8.623883   20.316071   48.371620
H   85.893700   38.915073    4.928901
H   68.988998   66.401344   51.551620
