100
TIME:    9.719, STEP:  9719
H   60.065582   30.742828   90.248001
H   32.060287   31.522503   90.918877
H   46.831539   73.127815    9.253454
H   83.107910   32.228691    7.430385
H    8.108679   51.777695    2.184666
H   77.306519   90.678780   41.251015
H   43.596882   17.611094   50.491634
H   55.992065   29.418972   15.826893
H   14.716301   51.849762   88.311073
H    9.296824   55.935444   88.258888
H   96.217255   57.306107    3.563957
H   84.893974   10.853678    1.120516
H   24.001404   73.709816   59.259521
H   73.854889   75.119209   96.859459
H   98.652962    1.883839   83.513206
H   10.742565   61.669662   26.279095
H   42.562904   24.807365   58.147263
H    8.902213   21.912178   62.616104
H   96.645615   86.077011   75.400146
H   30.668880   99.419891   78.047325
H   87.536987   88.660774   93.452408
H   94.150345   56.986099   91.615677
H   55.979546   15.585831   54.278839
H   16.022274   53.095673   85.257019
H   81.977646   15.394737    8.312893
H    1.778845   39.587387   76.281212
H   23.998379   38.469570   92.804306
H   12.481001   10.089772   88.030571
H   22.501598   30.875387   97.750412
H   73.662819   50.294327   56.021065
H   98.558342   93.577576   40.442749
H   79.420975   83.985672   99.527596
H   54.951698   57.393967   73.361229
H   88.752563   83.034386   62.305290
H   39.076805   23.805275   16.364202
H   17.493376   46.668156   88.872047
H   11.977902   48.604744   74.284561
H   62.285542   81.093040    8.284789
H   34.830013   69.656639    2.469509
H   47.771946    2.321965    2.704918
H   71.026733   89.665512   71.319908
H   81.149269   79.718430   76.127434
H   94.928864   21.790916    3.486931
H   58.760883   75.782326   31.005482
H   13.594244   48.426823   87.788864
H   52.675026   48.285870   22.645861
H   17.676960   53.393955   18.764269
H   56.780819   95.472549   69.933823
H   49.124458   27.522808   56.780815
H   29.784811   78.670189    3.979898
H   45.398838   31.529778   51.942596
H   77.472290   61.888954   36.044411
H   10.464172   78.362793   38.408104
H   51.618858   48.631729   60.688728
H   66.953621   10.331159   83.001602
H    5.700762    2.310279   61.769089
H   12.395124    9.108728   80.345177
H    2.359508   59.047539   63.216087
H   56.797329   49.434044   65.358681
H   17.665722   74.823410   87.179115
H   72.786346   26.593096   56.632801
H   53.971611   37.478989   55.602837
H   33.894382   44.093445   67.017502
H   10.425863   94.706497   63.272102
H   18.085972   84.602547    0.656353
H    4.296496   59.113304   20.847986
H    7.794609   84.372711   36.296154
H    9.007985   73.377266   30.827011
H   41.296265   51.440979   50.674984
H   27.412811   36.804173   81.229782
H   13.401947   34.116146   45.570595
H   72.930382   28.891991   68.443390
H   73.295334   37.568554   12.552738
H   16.258228   34.304951   25.683275
H   30.644053   42.625957   38.202625
H   55.423416   30.469120   41.963730
H   49.475533   84.596115   63.114296
H   88.588326   15.227608   51.195091
H   27.575010   24.970951   26.121889
H   22.896454   79.579018   83.620766
H    1.081163   29.829874   60.874825
H   70.600853    7.507169   73.911552
H   32.621231   69.654335   55.532238
H   18.801174   43.835403   75.736443
H   79.097290   40.937798    5.606257
H   27.607792   66.051308   16.700260
H   16.264956   96.701363   86.982536
H   12.336224   27.353392   94.810989
H   57.381840   53.033669   48.701912
H    7.048289    9.408958   71.645645
H   21.764853   98.228729   38.709618
H   97.406479   26.440893   18.712793
H    8.460174   19.132643   70.589775
H   84.001991    2.618346   86.075859
H   88.554260   79.161079   39.417030
H   96.671112   11.939854   65.449905
H   91.154106   25.431435   78.239319
H   19.517389   67.355057   83.766136
H   45.722191   78.771187   30.969501
H   42.895370   29.230221   61.478756
