100
TIME:    5.072, STEP:  5072
H   74.323891   56.893074   94.502457
H   60.398811   79.708466   97.911011
H   66.939026   38.803528   63.810551
H   82.327927   23.684341   62.150993
H   49.741608   79.300674   28.181339
H   49.370983   95.713219   81.043633
H   87.146645    3.822439   87.090012
H   21.237099   27.394512   42.500050
H   28.948494   98.641159   80.823021
H   36.234978   89.209770    6.302194
H   28.469940   70.325516   51.188320
H   62.259071   77.923882   31.897993
H   20.412186   54.876656   21.042480
H    3.946119   89.442543   43.222031
H   42.194588   16.976046    6.965109
H   97.588989   68.113358   12.020596
H   16.247200   17.444767   35.112518
H    9.529223   48.030972   23.703989
H   24.266533   91.129120   30.574724
H   55.866432   98.105995   61.657967
H   63.297050   51.284332   19.581848
H   48.637924   50.817139   87.350647
H   18.025520   53.371971   87.233780
H   47.796413   97.504120   30.381897
H   48.179840   83.924667   73.997719
H   23.425283   76.717285   13.470396
H   24.714273   31.639435    0.601190
H    4.581695   93.183533   34.425896
H   21.457146    9.263727   17.416012
H   95.476913   65.307671   86.598335
H   15.669818   76.871140    8.098442
H   86.006477   12.379632   29.723579
H   27.621777   97.391151   54.722771
H   92.405090    8.904201   58.075645
H   54.695389   75.515732   33.577454
H   13.538075   82.689262    3.480839
H   66.268921   18.788158    8.119069
H   54.355518   66.136360   80.358162
H   30.981701   70.907097   52.797638
H   85.467552   37.359573   37.088657
H   88.616806   30.215895   61.839825
H   75.778008   39.491959   41.084858
H   54.928944   93.915222   67.828712
H   55.478207   97.776123   76.648972
H   16.697634   31.776436   90.134911
H   12.651478   59.657459    3.766059
H   81.359665    0.669799   74.152794
H   56.510288   47.609924   82.404564
H   13.291321   12.387295   42.150269
H   32.252773    7.930433   28.921898
H   43.157658   79.974442    6.893914
H   51.621834   93.095520   41.095055
H   14.079755   51.417908    8.294661
H   59.232979   24.448708   55.629478
H   36.955200    3.090290   43.487675
H   99.912430    7.198471   19.963959
H   17.795258   43.196434   38.376930
H   48.383682   97.899513   82.911728
H   90.294914   53.073700   22.102444
H   24.319469   17.638447   19.350838
H   79.646118   42.700176   18.943352
H   18.900846   80.732620   65.864258
H   18.398008   61.179001   85.668182
H   91.324623   69.392487   89.434052
H   33.638298   55.752659   67.902306
H   89.765129   90.129021   46.079552
H   80.632233   23.715343   11.938126
H   30.008171    7.609926    8.673530
H    9.688869   85.344765   42.126122
H   33.145126    3.248361   91.052948
H   60.973808   50.301361    1.304295
H   55.756775   83.195038   27.969494
H   76.287292   67.422829   31.702293
H   18.554989   28.412445    1.793083
H    6.713578   35.870907   85.889740
H   45.564766   32.639999   54.647350
H   27.459333   86.939156   80.749367
H   70.272110   19.074345   94.546577
H    4.735019   38.620663   74.273277
H   50.784760   32.721134   83.963959
H   10.123064   81.753830   83.130745
H   21.883499   77.351578   62.660057
H   38.690422   91.941101   12.974874
H   99.095856   46.181320    0.168903
H    5.364411   31.628319   56.078865
H   34.559635   95.356789   93.998154
H    5.902151   34.577209   65.396057
H   37.596756   99.218475   42.996864
H   60.942001   11.771681   86.708382
H   17.905428    0.597940    5.530200
H   31.589836   47.304516   40.573162
H   53.575535   76.942307   30.169943
H   10.578410   79.707283   11.230122
H   37.456055   20.886557   68.796333
H   68.899208   95.410149   32.634190
H   12.848037   95.444489    5.473480
H   60.010765   58.752331   45.493759
H   25.482824   59.422729   74.871223
H   67.094727   58.713696   20.203552
H   54.251316   48.476917    9.138316
