200
TIME:    0.972, STEP:   972
H   31.963804   60.045643   27.856323
H   34.488098   43.564522   19.614090
H    2.795561    1.177639   81.403130
H   42.516586   85.529549   25.358078
H    7.438286    2.281729   43.134102
H   65.805359   32.947365   43.883324
H   13.964599   54.784752   63.819790
H   19.292337   20.494095   99.089874
H   17.155024   76.532257   29.862118
H   85.093399   64.643669   67.199471
H   37.707561   10.230900   16.093559
H   33.804718   61.560974   47.620918
H   29.140209   11.302584   31.290581
H   69.806007   56.295284   77.538872
H   84.281265   77.579567   41.177521
H    7.964241   95.806503   38.532219
H   18.653625   41.999069   79.904770
H   19.180779   18.357380   30.488592
H   89.380371    3.201318   53.259544
H   92.385078   69.652184    9.094605
H   66.869835   13.298622   92.304565
H   73.732826   76.793800   42.366287
H   73.085197   57.219223   31.572308
H   24.112801   94.732918   89.290764
H   35.062820   42.143883   19.290630
H   18.055151   94.822433   82.780312
H   13.071540   73.484566   78.513321
H   11.310082    0.326015    2.657352
H   41.899021   34.280220   34.052094
H   59.970802   40.374279   73.304794
H   12.405807   82.031166   17.089764
H   18.614880   80.662582   11.625574
H    9.436501   24.736147   82.120285
H   72.200050   64.376534   51.084885
H   12.859871   59.554596   28.650286
H    9.137806   33.234268   87.856163
H    7.273902   58.629837   91.450294
H   96.707642   63.690296   82.256042
H   25.978790   20.189377   60.702705
H   83.062759   36.678326   35.102631
H   80.722115   71.028763   25.820915
H   49.774002   27.756907   18.125244
H   63.522030   70.966347   77.509102
H   35.650528   98.786201   44.927402
H   53.787979   98.628433   70.779625
H   30.758612   94.788490   50.648891
H   93.768402   90.348938   12.227523
H   72.294991   65.539436   21.332474
H   15.389396    0.974140   61.694088
H   35.922283   21.104864   74.744843
H   60.795090   61.231071   98.859322
H   93.156975   48.297100   79.279457
H   71.921349   73.489372   17.491768
H   11.511919   97.631027   92.543098
H   46.214890   60.105484   67.099739
H   95.922539   54.315506    2.618071
H    3.341506   19.515480   41.802479
H   75.405991   75.596024   92.090691
H   12.735231   88.617966   24.830387
H   26.173222   91.878822   53.462463
H   48.048805    1.094924   20.849102
H    3.092520   18.158937   54.678169
H   91.613724   40.369598   60.188869
H   41.862480   66.196678   20.011086
H   83.115372   86.991608   47.863026
H   10.024955   44.999260   46.020889
H   58.832375    7.721267    0.958516
H   93.242241   93.114174    1.764049
H   42.559265   15.745177   52.714760
H   41.023296   54.388271   50.943501
H   58.144043   89.252686   92.861359
H   11.567799    4.581439   39.640850
H    0.726277   38.318066   74.984436
H   31.713263   92.874962   81.883461
H   88.058243   12.720954   33.194107
H   71.815926   93.234383   58.094162
H   92.333649   57.200821   61.790913
H   99.443146   19.299261   22.936836
H   17.101145   62.298729   18.708250
H   57.244564   86.584518   59.547028
H   74.435875   17.730505   90.266022
H   58.823742   55.425251   65.227959
H    8.143828   21.695726   68.862328
H    0.803696   85.795692   17.708778
H   12.841553    7.064504   37.037766
H   45.289276   60.162811   12.545080
H   68.662239    4.309435    3.449519
H   69.244148   91.300751   39.051277
H   88.091263   73.838821   79.806885
H   19.777763   18.858507   46.812344
H   10.558447   41.211903   77.498596
H   78.956581   94.957886   14.339970
H   82.034378    8.606491   74.882080
H   27.203489   68.135216   89.204063
H   43.672264   47.024498   98.426750
H   38.958229   44.075310   94.644478
H   89.235222   88.959557   29.854668
H   99.644829   42.032597   58.197205
H   20.431297   62.445297   55.475349
H   79.931999    9.821325   27.429117
H   42.525539    0.665464    3.408858
H   17.790899   87.731064   61.826851
H   38.353073   10.418178   40.731457
H   57.048851   69.290985   19.231762
H   24.368395   17.853058   48.819790
H   16.403078   90.934708    9.619372
H   87.461372   36.965763   50.179546
H   60.437489   62.379463   90.437019
H   91.399254   30.849739   34.528522
H   27.881182   17.854319    9.119860
H   56.825386   89.705788    1.310866
H   15.385250   81.752625   98.849144
H   44.380432   88.769012   78.013344
H   60.744560    3.616430   56.078812
H   39.422707   12.449645    1.106295
H   84.165535   84.384773   11.957138
H    2.478596   18.750189   92.713547
H   37.057278   63.026279   19.346550
H   46.660927   85.195999   47.363148
H   90.100166   61.284481   76.650528
H   48.194466   26.623722   63.533527
H   86.705994   10.139484   69.719299
H   49.884102   90.949905   45.744808
H   93.292908   40.978157   85.809441
H   55.013115   90.828880   68.603386
H   74.538879   82.380829   11.398430
H   77.191628   52.607773   42.784927
H   59.417290   93.311058   41.184856
H    1.475920   25.986980   68.208717
H    3.224885   20.679840   78.972282
H   78.157692   59.049225   31.385189
H   53.603294   93.311508   26.589344
H   90.047493   18.207758    2.821180
H   65.027588   31.770580   58.715832
H   40.587315   88.134369   22.780136
H   42.861832    0.687396   72.897514
H   70.104599   88.429817   91.778938
H   97.462059   41.365498   71.632423
H   65.446472   54.570419   71.376961
H   43.844460   73.983849   75.117950
H   86.856888   41.542374   38.555603
H   23.540466   63.251961   63.310993
H   31.474264   70.232826   74.694214
H   24.171272    0.030457   90.254433
H   74.709381   45.490311   73.004639
H   72.761650   74.586472   94.787621
H   62.043877   93.572166   42.040638
H   22.664742   46.170860   64.625267
H   84.754120   34.229988   90.667572
H   32.796082   96.666527   62.603897
H   50.420303   73.741531   45.818119
H   64.600990   86.854515   25.213104
H   10.181238    4.467892   77.768967
H   29.259758   17.944841   57.862675
H   42.639103   73.211868   73.995262
H   85.232231   45.343937   76.582886
H   66.973495   82.836716   89.423264
H   56.453186   24.915237   26.873402
H   78.879265   98.975937   75.457802
H   55.472935   27.076521    6.331708
H   61.146271   54.670769   63.953140
H    9.234835   19.262882   29.202530
H   96.728325    2.654855   36.927685
H   38.143707   41.683613   39.881851
H   51.945366   46.926392   17.016863
H   24.525383   41.148235   58.300373
H   62.295128   85.727364   59.981663
H   24.271664   64.237000   78.281876
H    4.020180   25.789724   35.128464
H   59.877937    4.935731   82.160309
H   65.380859   14.338996   35.914642
H   20.874727   38.258064   59.705963
H   51.816238   45.999516   69.827591
H   62.211647   57.030678   91.222397
H   37.415771   89.530014   64.812813
H   23.501945   51.621727   24.006790
H   27.897923   75.789215   17.527390
H    8.217625    9.898949   74.240189
H   56.880535    4.362454   60.574589
H   51.480827   62.307213   96.711143
H   68.053589   11.421517   24.700474
H   33.992073   30.999599   96.339035
H   31.930050   89.393677   20.569626
H   67.421608   26.574780    4.119689
H   94.989059   56.585266   75.381088
H   14.584408   42.400467   87.617775
H   56.840637   91.986549   15.484541
H   55.254089   98.230904   51.140495
H   85.419228   64.437294   74.909317
H   62.924744   54.291409   74.951309
H   82.787476    6.806243   74.074165
H   41.652138    4.822163   15.300756
H   20.359947   34.938805   74.576088
H   22.315622   92.744781   48.065311
H   59.774078   21.560059   19.421837
H   77.115250   12.179630   19.537617
H   14.326964    5.519733   28.173567
H    7.635633   82.857994   26.322807
H    2.151956   13.660089   45.279457
H    0.373000   10.192741   87.579025
