200
TIME:    0.306, STEP:   306
H   11.499225   62.255955   16.468136
H   28.552546   33.841690   92.576515
H   16.754341   72.026962   48.599052
H   20.067272   77.745186   42.773811
H   14.509404   85.402008   52.709579
H   87.471497   51.023651   63.595749
H    4.315444   55.257301   50.928844
H    4.367650   91.736420   22.729610
H   90.108818   86.516769   46.109348
H    8.537868   73.974388   93.469154
H   14.494162   96.004097   95.047333
H   31.050720   43.784477   15.887073
H   12.794063   89.198280   58.586662
H    1.284002   53.485394   45.446163
H   16.435343   72.452660   42.816200
H   27.376614   23.246998   52.899246
H   87.312241   10.809605   12.227646
H   34.994911   86.339844   42.345356
H   67.221359   27.312492   43.455414
H   90.266228   78.798302   34.912235
H   58.877144   80.052917   22.816715
H   88.559700   51.337105   68.031311
H   93.028816   62.061584   47.552574
H   10.006185   88.660912   91.379128
H    6.115160   15.358442   43.055294
H   18.606459   65.265228    4.776724
H    0.173764   60.121067   51.735519
H   96.024933   72.852074    0.904934
H   13.848386   54.523628   37.951897
H   90.066956   22.532400   96.342850
H   13.275324   54.206638   16.275505
H   30.725864   65.053207   95.228050
H   25.528587   10.405710   73.985321
H   94.242195   63.649925   39.443909
H   44.821171   87.073837   33.717060
H   30.905350   48.417122   80.233299
H   88.158783   73.004486   86.450417
H   29.650295   46.462566   12.199955
H   50.627579   44.037251   45.898697
H   89.449799   39.417080   61.118256
H   80.523949    2.140731    3.714963
H   16.624407   41.722908   37.874130
H   75.513504   86.265770   52.779011
H   37.134232   66.439430   21.108805
H   31.031984   78.308807   46.745659
H   40.131012   12.120859   43.405674
H   81.217896   22.978699   97.626183
H   88.509026   65.549599   45.274979
H   89.632812   26.247555   61.213917
H   59.755543   18.099348    2.920140
H   76.638199   69.660744   25.253094
H   18.615129   36.833965   64.960701
H   53.956528   92.533455    8.791673
H   21.424313   83.576492   82.680534
H   74.405258   74.917114   88.638847
H    4.459581   70.724129   80.809418
H    5.242128   16.995216   48.946613
H   68.129745   60.113682    4.112222
H   26.788496   75.752426    8.722770
H   41.576809   95.618568   65.774155
H   50.205765   14.088728   40.308197
H   91.122528   16.581232   49.571987
H   73.265594   26.573706   82.658264
H   25.725155   65.246498    5.141083
H   72.409332   77.062988   20.628450
H   36.150749   19.125277   34.049637
H   83.709816   21.769825   87.198708
H   96.971825   91.599983   88.578239
H   18.870115    6.745143   61.144432
H   44.857044   42.780323   50.979069
H   58.436211   77.733658   75.046753
H   30.285583   22.087011   44.302830
H   79.588516   26.804119   97.285721
H   10.015542    7.513982   62.493885
H   79.948685    1.939966   64.509399
H   54.981987   16.746471   62.446190
H   95.148621   32.407219   71.212013
H   24.110680    7.171762   45.710670
H   12.032337   32.633945   33.476681
H   67.281601   90.298859   91.131622
H   46.169292   28.986582    0.153954
H   29.538486   67.403404   85.816887
H   10.742215   14.390265   88.348640
H   22.521811   64.017769   96.002655
H   36.557945    0.021760   55.911797
H   26.526661   83.465088   26.408913
H   38.813263    2.921638    1.922630
H   74.782631   16.087950   13.931565
H   67.706619   72.214821   77.406517
H   23.113556   89.005455   54.139400
H   38.476120   35.462551   80.460922
H   83.595695   89.114532   99.807968
H   50.394985   16.117741   93.850113
H   57.068310   92.062477   70.916908
H   26.797283   56.033424   70.688606
H   66.538857   29.184921   25.958490
H   80.200890   11.996374    1.171691
H    5.080313   29.464294   49.218464
H   35.522392   69.116882   53.115143
H   68.351997   98.999924   27.266520
H   12.810887   82.251221   72.047646
H   93.026558   77.655090   65.500542
H   24.547514   34.757996   31.425201
H   25.047323   68.061340   92.783295
H   25.251249   26.605385   27.227329
H   90.035973   23.541540   40.800797
H   68.784782   30.916292   55.952072
H   64.362465   36.808441   16.189539
H   74.473854   39.256546    2.324024
H    6.486888   27.140169    5.860285
H   48.062897   95.493248    0.842287
H   88.644089   65.005066   91.262947
H   55.947731   81.040543   92.499779
H   63.000603   17.974468   73.252014
H   61.647774   84.716888   24.458515
H   11.344995    3.866489   81.911819
H   29.861362    9.372056   84.949509
H   40.436260   30.245068   32.659233
H   21.368837   60.191532   80.277725
H   72.524376   47.992123   51.804817
H   41.243416   22.198017   85.357124
H   15.441326   25.916538   50.129562
H   33.827583   19.038998   25.987040
H    3.104898   64.943626   14.974987
H   74.941490    7.317969   90.630287
H   50.140347   64.158356   24.257051
H   93.746101   49.498093   68.505844
H   73.985023   88.087608   35.559994
H   93.279930   50.094624   83.386192
H   70.944183   23.836521   67.626015
H   51.273186   82.829132    5.933575
H   79.166695   86.705978   10.883428
H   92.222237   85.805809   97.866104
H   97.684311   14.695166   50.519554
H    7.686537    0.176754   53.384064
H   60.600220    1.542145   82.709267
H   69.001984   86.732704   58.624260
H   91.781303   62.160213   82.155540
H   48.038361   45.256622   71.534477
H   43.483696    5.924489   93.623596
H   53.885128   61.127769   17.041901
H   54.199936   43.016174   47.785458
H   52.883835   57.975780   97.158096
H   54.688820   24.138523   79.218117
H   43.404247   67.578186   51.226719
H   48.358383   63.112976   26.685196
H   46.292229   96.488762   46.809322
H   40.850273   70.961922   68.446312
H   66.949677   62.036728   97.288345
H   11.565834   89.395363   87.527069
H   73.893867   62.430828   50.845943
H   36.565651    5.283519   46.084038
H   79.241806   29.370739    1.147576
H   11.654594    2.657677   74.321556
H   16.229687   55.622044   61.947357
H   65.461372   43.692554   56.091484
H   60.002117   62.862751   81.537277
H   46.984413   35.600952   11.270378
H    9.361130    1.485646    0.157390
H   62.939724   54.250885   80.773880
H   54.604256   81.728035   81.661049
H   40.505322   22.714272   34.972206
H   68.060326   31.692451   37.204609
H   13.697273   22.118542   68.374939
H   58.322243   24.327856   10.473042
H   13.050815   62.339283   61.941036
H   73.763344   96.499458   52.921368
H   23.689869   33.935425   50.741901
H   94.969765   27.955576   36.701088
H   29.484879    9.961650   89.660126
H   78.104126    6.418712   35.970535
H   43.882912   62.995773   57.660789
H   38.948158   74.618301   88.566971
H   70.412621   72.962158   75.772720
H   68.370300   94.540054   96.128105
H    2.945091   48.017357   23.350065
H   34.739727   54.982895   89.668877
H    2.314942    9.263802   65.724136
H   73.913704   19.845278   68.362915
H   83.160957   55.163078   87.316048
H   80.212845   87.554543   40.184761
H   20.558901   30.186611   72.025604
H   62.596668   90.097275    7.376307
H   52.918022   25.342573   79.618355
H   86.376465   85.471756   78.124924
H    0.642127   36.780685   84.284523
H   33.650146    3.394034    0.727499
H   87.250259   70.020210   27.835907
H    4.707066   61.467724   67.297714
H   50.813759   57.914288   66.536880
H   50.973186   28.840744   78.830147
H   47.111862   86.722809   23.783728
H    5.566496   19.094189   59.318092
H   33.950459   66.165146   34.643383
H   82.629684   51.307362   21.600391
H   75.489273   10.545397   28.662140
H    9.899989   87.359062    5.694440
H   26.991381   96.094460   45.105377
H   11.033185   11.796568   75.065315
H    7.319366   32.756771   96.831848
