100
TIME:    0.359, STEP:   359
H   93.045082   89.099251   98.817337
H   91.283958   24.209133    0.646163
H   85.932556   99.732155   19.124619
H   81.536865   17.859339   20.484903
H   91.955521    1.532954   55.971107
H   22.449413    0.822923   14.298237
H   34.155598   85.578987   18.527040
H   91.669601   19.660419   75.232384
H   44.803093   51.777039   77.489952
H   65.029686   21.540844   21.747499
H   66.861725   80.687744    5.169132
H   42.139164   41.685387   67.375038
H   20.426735   39.987488   89.447289
H   37.306309    3.970387   84.560081
H   84.869041   37.955673   33.515247
H   87.089096   80.336861    3.239698
H   95.203499    5.738268    6.041186
H    8.816232   77.242416   87.100388
H   50.854500   93.412766   82.275986
H   82.931587   98.004852   40.679726
H   42.972977   20.477554   47.498436
H   96.770973   44.573776   88.687325
H   80.950859   91.702492   22.078876
H   85.686523   40.987400   80.412720
H   16.743643   57.703121   39.209488
H   45.012875   16.912468   55.523804
H   31.121435   27.553429    7.090084
H    2.250148   73.196091   78.641647
H   18.977417   81.663414   40.201599
H   14.759431   81.954483   11.928234
H   30.223787   54.235832   81.003685
H   88.424927   42.592163   66.029655
H   95.644836   42.215721   30.138510
H   93.270470   40.822418   56.626991
H   71.848320   31.782639   46.588379
H    3.768416   12.686941   19.409063
H   14.232125   91.388039   36.753002
H   49.151146   52.383503   47.774326
H   34.580746   72.844398    7.717745
H   29.379978   78.575218   66.280571
H   10.708645   68.497215   50.798138
H   99.356285   27.969484   19.666418
H   14.333482   65.652756   27.404388
H   56.434692   18.788027   15.833035
H   25.515217   17.727455   86.827820
H   73.366432   69.952934   84.726112
H   39.870777   45.107494   30.690863
H   56.258587   99.079224   90.790848
H   75.522514    2.717647   30.152910
H   33.419163   36.213604   58.554810
H   43.517231   34.984810   57.202122
H   22.579359   30.426090   50.495117
H   16.326029   24.090332   82.020332
H   68.373917    1.344471   47.657734
H   12.179031   89.976608    3.452423
H   94.015427   12.154652   80.405594
H   19.011322   79.188072   90.131248
H   99.327087   42.983681    4.307655
H   18.590874   53.937424   83.923157
H   35.328148   55.382675   53.398766
H   82.346481   61.873993   86.405273
H   86.169525   24.603836   79.111801
H   98.583061   82.672203    8.929215
H   67.692329   43.747353   17.393126
H   46.571945   32.171108   28.993830
H   79.291481   24.426167   67.412743
H   58.765495   60.771954   84.394455
H   55.567223   38.069260   83.364876
H   74.795708   23.990868   37.716877
H   37.658905   66.201805    0.975842
H   10.632181   70.978188   57.841770
H   44.365612   39.611076   82.906227
H   83.584045    0.550365   52.544125
H   22.289085   26.661139   81.872169
H   79.480026   29.154512   28.612915
H   34.145649   30.580729   71.772568
H   99.549408   95.428581   97.385803
H   48.846802   27.246269   34.266491
H   78.760994   52.450321   21.691433
H   81.919449   89.402489   89.993073
H   17.907154   32.995678    1.445608
H   68.260094   46.572098   56.760872
H   40.510868   13.249486   64.092834
H   74.866364   42.881687   30.639473
H   34.849854   26.427986   12.951350
H   43.030659   22.240505   66.713295
H   91.131508   77.250694   40.661663
H   61.734360   76.551659   92.007347
H   63.133247   74.183723   25.263577
H   34.595589   94.514832   37.045803
H   38.714329   92.816818   41.043163
H    4.849074   22.506197   40.364365
H    8.318340   38.387794   46.688194
H   81.926643   35.008415   51.023479
H   50.385181   17.572193   24.335953
H   23.573547   81.554863   48.906181
H   34.106255   88.282784   16.542625
H    8.183286   19.294342   50.291481
H   91.610252   38.397800   14.980511
H   61.536602   69.483009   63.109238
