100
TIME:    4.314, STEP:  4314
H   25.583767   26.405457   95.196426
H   81.333565   38.633453   50.117950
H   53.908440   84.270744   72.705055
H   82.200699   54.913750    3.697258
H   56.530945   18.543627   48.733871
H   61.127987   96.534416    5.975582
H   26.874012   52.640514   27.813425
H   80.814400   61.816692   12.096193
H   47.581581   71.519852   28.535654
H   56.949974   78.326012   76.622314
H   98.977264   39.825550   24.203506
H   91.186394   39.929039   85.854134
H   68.781876    0.713399   96.361328
H   41.476616   91.778908   85.537277
H   32.976357   84.683716   43.402653
H   28.068352   34.410942   74.941345
H   77.200874   67.307022   66.108788
H   93.323204   84.910728   49.981960
H   12.460373   59.332893   90.641083
H   76.289970   14.203524   10.049753
H    8.277832   26.744946   40.154015
H   75.967728   49.810883   51.901321
H   28.145912   59.536736    8.920932
H   18.224190   88.421326   86.677780
H   75.290924   44.038254   68.399696
H   26.880674   99.120941   84.749306
H   90.077812   63.151409   85.564980
H   68.538177   57.802643    9.368190
H    4.974397   40.491543   53.246803
H   66.411148   84.067986   26.338902
H   85.838448    8.900661   68.068993
H   38.145702   33.320419   99.895485
H   74.230446   52.849327   86.436142
H   60.378387   78.370422   90.009819
H   73.536667   32.814903   87.421097
H   47.646076   23.320148    5.865518
H   93.567917   46.548325   48.391590
H   85.686470   80.004189   26.868679
H   62.979488   87.423576   26.253363
H   56.862144    8.320655   77.451477
H   40.419968    4.209273   43.981670
H   43.903397    5.471755    5.477108
H   48.399845   89.369720   13.078959
H    3.881381   85.068268    2.535183
H   82.447777   61.680748   25.271570
H   22.431164   45.199757    0.684693
H   75.437790   59.447960   66.877678
H   56.469807   39.802765   35.503777
H   91.133774   75.163666   72.388397
H   16.355083   96.394997   81.937355
H   43.215488   53.154793   98.902939
H   14.784960   63.433331   90.855347
H   98.357185   47.022766   52.319698
H   76.788841   36.818718   22.180988
H   97.307434   36.656925   37.039539
H   98.964005    7.995813   45.768066
H   69.739517   65.068047   66.284737
H    4.826451   69.483543    2.435638
H   30.512663   21.046009   80.295479
H   74.338531   59.377560   40.910164
H   31.831594   77.950340   78.042030
H   45.802330   87.787979    0.157952
H   66.939095   12.903247   37.646538
H   39.274147   65.263367   10.013065
H    3.551553   16.291611   97.312706
H   36.329170   27.810982    1.261114
H   41.448563   97.509705   75.341965
H   82.368187   64.259537   72.436745
H   71.912552   39.809799   89.665710
H   17.788370   65.125977   92.649078
H   85.042992    1.874935   10.397751
H   18.258404    8.351703   72.473564
H   25.710920    4.919567   51.139229
H   35.242245   76.381828   46.830467
H   70.165169   34.789471   28.428862
H   27.643000   84.060020    5.652631
H   58.639000   52.638203   67.344185
H   34.659893   68.639839   52.687073
H   68.383186   40.847149   65.818413
H   87.958405   74.005150   49.266228
H   95.291916   73.911972   37.826092
H   65.010841   72.401260   26.043795
H   90.742928   79.266785   40.787243
H   46.945923   81.317207   69.398880
H   42.273758   79.041969   29.558395
H   52.007191   67.517036   41.360550
H   55.277031   89.689972   29.251799
H   25.396021   59.904945   50.879204
H   45.212021   53.975365   92.907845
H   84.923141   31.786095   78.431427
H    0.569224    6.375868   24.565592
H   97.488739   19.935776   15.728052
H   61.989265   56.959717   52.612774
H   64.193283   74.909653   17.689890
H   82.003670   63.308830   15.218268
H   50.240311   25.375893   44.625328
H   20.177357   15.252021   89.086624
H   22.701162   52.968811   87.004128
H    3.204221   55.446255   83.694206
H    7.170993   67.926582   82.159073
