100
TIME:    1.899, STEP:  1899
H   88.901031   47.873306   97.407425
H   48.446129    7.705152   97.788658
H   12.396940   10.525916    1.043180
H   81.795349   54.411644   36.072399
H   78.161880   24.970737   14.215275
H   98.568977   99.150764   66.810905
H   53.442753   89.566887   38.957130
H   70.628639   52.888828   33.834198
H    6.946953    3.712221   80.552193
H   22.945074   43.650185   82.052971
H   23.614670   42.652775   56.827488
H   83.360947   18.877474   57.756004
H   22.467346   46.815315   36.383888
H   61.054176   99.222603    1.753840
H    3.598348    0.401233   59.490753
H   25.170456   45.636086   75.407974
H   71.390701    7.580910   46.253487
H   41.725288    2.352144   33.711716
H   74.840065   58.020607   63.407360
H   41.355309   65.483994   45.625374
H   51.587280   67.166748    5.702595
H   44.436405   46.606400   57.559456
H   60.389641   79.177773   78.017242
H   42.603859   59.457249   66.039108
H   61.664665   35.566010   50.573204
H   37.951565   71.022827   11.179334
H   98.325554   63.540211   37.649883
H   72.309128   45.078609   29.542704
H   52.462830   21.384092   67.405571
H   73.809593   43.839859   34.353176
H   90.803017   92.337997   59.142223
H   85.661285    0.047235   23.464104
H    4.120035   29.541946   68.873871
H   58.338631   99.690842   91.749847
H   33.569206   15.370475   40.363808
H   37.665691   33.660130   14.111592
H   61.936935   34.991554   58.099064
H   85.501961   24.197010   56.447529
H   65.350357   39.969948   60.117775
H   84.328636   34.405048   87.443680
H    5.466438   21.342836   87.084152
H   60.949890   97.084801   92.018402
H   27.598036   74.887680   38.640121
H   58.095116   44.598160   66.407272
H   91.931435   56.964054   18.612726
H   53.587818   99.137306   90.881538
H   56.131763   28.181047   43.850044
H   56.340832   14.935354   86.077309
H   20.540564   75.173668   68.724136
H   65.717278   59.653393   50.845272
H   43.399738   86.307076   73.439606
H   97.421455   87.526138   49.396938
H   48.272285   33.019775   92.578575
H   32.716328   76.224052   15.614180
H   89.580490   24.981115   16.520399
H   95.942307   10.536190   27.980362
H   16.640795   34.752342   36.598228
H   84.653656   97.550140   64.641800
H   40.046562   19.005903   65.697250
H   33.704205   73.751999    9.597926
H   79.490891   90.259956   66.333641
H   31.511986   10.268555    9.429721
H    3.040124   77.655571    3.279292
H   73.441162   52.124580   75.584343
H    7.695858    9.173631   72.412064
H   84.686775   47.868080   58.469051
H   35.208694   14.016812   58.746227
H   49.188911   26.143410   56.985783
H   51.549324   13.336288   41.130981
H   68.855042   43.657631   97.734375
H   61.730675   66.192833   39.371922
H   17.386160   88.500839   95.657280
H   83.173019   24.374317   13.054836
H   88.397789   29.206713   90.345345
H   53.728943   31.345751   45.355328
H   70.554512   29.280321   68.149834
H   39.371834   61.955368   24.633471
H   21.198803   26.549314   19.314014
H   52.578102   47.939304   38.865334
H    6.394814    5.529879   57.320625
H   48.044025   48.927685   93.487862
H   83.807281   56.629471   27.984632
H   37.952534   38.952911   10.770189
H   80.804512   74.661476   89.977234
H   59.864029   30.100586   63.665695
H    7.583136   78.809135   73.655540
H   93.984627   65.280151   14.095030
H   86.525314   53.255997   76.001259
H   95.091255   88.439247   12.663265
H   98.440842   31.145378   92.102867
H    1.737435   75.971222   73.565140
H   18.794054   38.328381   69.704567
H    7.127872   84.532394   65.826950
H   30.773327   28.420626   54.857536
H   23.759521   79.628998   59.723473
H   50.771210   20.741743   69.363083
H   11.868896   76.660271   27.976212
H   13.837621   32.406525   25.651752
H   18.248928   45.036137   85.980576
H   57.175674   29.925163   14.784811
