100
TIME:    2.583, STEP:  2583
H   42.644196   85.147118   96.781204
H   29.419456   44.791367   40.934803
H   24.154234   59.735291   93.016624
H   81.910156   26.231176   98.579407
H   72.035355   79.796356   95.669708
H   87.964973   98.409737   34.548840
H   17.595787   35.754356   92.446815
H   16.867592   12.064842   71.032219
H   90.132866   37.948547   37.496304
H    4.254995   53.471413    8.835902
H   59.990662   70.175171   90.941879
H   57.256630   53.163055    9.068575
H   78.957161    5.432230   68.399010
H   27.186073   97.114326   53.808422
H   11.918926   39.302979   26.609377
H   97.666885   85.810394   18.630014
H   16.397800   52.815056    8.529031
H   56.342323   69.089317    9.996403
H   85.496254   86.713043   99.446274
H   22.928764   50.960361   92.195320
H   10.997742   99.070831   87.135971
H   10.015076   47.512955   99.311996
H   51.257256   73.614845   58.447845
H   79.052811   67.660736   15.237180
H   37.200310   81.317841   55.619499
H   34.815243   50.642765   47.066772
H   39.343819   35.104572   51.223217
H   14.596169   77.005424   52.153355
H   67.335571   83.442116   35.071709
H    0.037804   26.911026   88.730003
H   17.711824   53.677532    5.020209
H   28.849251   81.145821   60.142815
H   52.301311   79.497917   30.493994
H   87.238716   37.006149   62.933258
H   16.564945   63.665131   82.014961
H   97.135788   87.392815   11.760655
H   27.542648    9.940428   11.995517
H   57.229347   11.677814    4.717448
H   36.043861   25.136885   94.000671
H   19.904047   70.372154   41.259365
H   58.720264   44.811642    3.199586
H   99.475822   27.784264   24.152525
H   33.489727   78.989426   88.046257
H   14.417273   56.063217   33.286293
H   32.599789   29.979160   77.145119
H   44.763325   12.183552   93.657784
H   61.912319   65.310028   50.253006
H   56.377361   21.977728   28.399300
H   40.532661   18.525761   41.437469
H   80.057732   70.061272    3.007168
H   43.347553   20.271639   80.651581
H   30.660936   24.055714    4.491746
H   62.461403   36.985840   52.853844
H   16.878162   65.066887   45.796600
H   35.127831   84.944839   22.323378
H   96.798141    9.817341    4.695389
H   60.001362   15.015887    1.652151
H   33.721039   32.955475   47.024124
H   93.993156   47.907162   13.184530
H   88.567657   26.325834   90.143929
H   22.638388   58.448856   13.005431
H    7.238106    3.900673   78.482620
H   49.436588   31.012510   56.354416
H   20.408937   55.845375   57.014935
H   34.845417   54.544842   36.110794
H   42.667366   13.864296   98.912468
H   80.329384   37.663738   91.768936
H    1.940170   65.261719   89.684937
H   85.638512   64.188423   98.230324
H   82.715393   78.061104   96.294067
H   40.011253   19.652315   31.164944
H   60.986000   65.800339   45.737236
H   38.575668   90.541283   95.516838
H   73.347618   85.922302   49.693184
H   86.708275   32.319859   97.206406
H   86.721443   73.119743   22.126801
H    1.474193    2.669207   36.731556
H   53.334362   81.825081   57.090778
H   85.376907   45.931644   46.498573
H   72.850136   68.279770   98.393539
H   61.429493   56.003979   34.368076
H   35.129234   61.096512   70.788551
H   81.227524   50.371002   75.917908
H   27.857311   33.192230   27.501282
H   26.559097   87.316055   97.359657
H   91.841919    3.931472   21.154736
H   39.667458   15.547791   46.710770
H   97.536362   98.493362   68.883217
H    9.286833   50.354591    7.067614
H   37.966549    3.001976   16.554329
H   29.729645   12.906789   88.009964
H   69.406921   89.764946   82.740395
H   51.014027    5.029778   18.743130
H   96.883980   69.911995    0.977590
H   11.931778   18.359848   75.441612
H    7.266837   93.732002   34.033798
H   57.575851   15.913375   88.638680
H   16.348845   38.230377   14.706091
H   85.665398   47.984592   28.684601
H   99.654312   12.356792   48.906036
