100
TIME:    6.592, STEP:  6592
H   71.532303   17.502672   93.110855
H   18.420708   62.076397   93.751869
H   93.077942   48.158546   45.963261
H   82.583054   61.060089   78.833496
H   36.127106    1.135288   86.969635
H   25.794933   94.066490   31.573765
H    7.484199    6.460204    5.956115
H    1.768096   58.892727    2.937600
H   91.583931   52.499496   85.144112
H   94.708473   11.035688   65.821205
H   87.083252   31.485800    4.775059
H    4.240883   54.113468   23.703045
H   23.417587   62.959209   70.007256
H   28.684101   84.757484   58.895275
H   60.672432   81.202904   33.893246
H   36.474487   35.168678   85.847168
H   94.017586   17.980984   73.484108
H   42.034138   74.072388   71.011269
H   47.937252   54.897469   10.655124
H   14.918556   65.820839   65.146629
H   73.098099   99.962128   78.323631
H   94.361801   52.834961   57.908585
H   97.729500   41.009911   43.746231
H    6.565746   15.687716   17.493906
H   93.817207   63.382553   85.223305
H   16.496267   31.783432   70.534309
H   93.643227   68.457230   30.763029
H   76.327438   64.131981   84.669540
H   54.507683   47.169598   45.564240
H   53.759388   27.688042    7.433995
H   75.493294   13.173324   87.840950
H   81.980225   70.379303   89.009621
H   34.688480   86.180565   91.656372
H   56.629677   69.605270   94.041534
H   16.899658   60.563148   26.113550
H   45.668697    1.742099   98.701180
H   12.057923   63.122192   27.889013
H   91.533516   38.316814   87.620857
H   66.823853   37.786980    5.498829
H   42.300617   95.062012   56.680180
H   84.735428   82.370247   97.650368
H   44.676178   67.453674   16.493694
H   68.018036    3.031341   77.620689
H   58.420910   23.289206   25.266790
H   84.848351   71.803818   20.205595
H   93.034569   88.649155    9.941946
H   93.234665   83.333023   88.741417
H   56.591465   63.265442   76.453537
H   57.718201   86.500648   81.517105
H   64.139404   31.067656   22.618944
H   43.048954   33.228851   22.916374
H   25.495808   52.051552   41.312538
H   45.610950   60.231384   20.015173
H   24.037056   99.645432   22.702724
H   15.930038   36.296196   56.417973
H    1.806087    5.599579   68.219559
H   14.156821   99.336800   82.941444
H   35.201324   54.354591   43.761337
H   10.174642   17.298687    5.415442
H   24.015167   34.471340   76.118431
H   75.528923   72.011856    0.432594
H   64.954964   66.584671   97.085693
H   21.590921   57.456947   81.437225
H   95.700180   77.672516   48.168613
H   93.970062   34.351887    9.453074
H   96.390625   14.565111   35.954330
H   58.680099   76.263519   85.323502
H   25.011391   94.540260   81.338318
H   85.446449   76.127258   46.794659
H   63.934311   79.701103   87.852264
H   12.706306   46.881729   83.073982
H   30.426878   32.749481   39.257225
H   77.180283   92.239838   92.728088
H   85.093315   32.212048   11.479551
H   79.997185   38.039486    1.115902
H   81.497231   30.057743   52.370705
H   65.477142   55.247173    7.651717
H   41.684475   19.685144   78.491737
H   77.622704   34.155941   91.227623
H   76.247299   49.922462   53.014458
H   39.867973   97.478928   73.977570
H   35.955467   87.220901   35.517925
H   34.834030   17.359533   57.732971
H    3.669187   76.250755   61.338779
H   31.354067   36.551987    8.731894
H   99.572922   51.190514   99.551544
H    7.419565   24.060692   37.875435
H   62.046501   77.575928   27.229050
H   92.484970   27.139883   74.276741
H   83.517532   38.063717   59.862976
H   93.794426   29.381271   72.672775
H   66.040146   91.261063   59.126854
H    8.013425   25.311810   28.774057
H   84.358162   13.101861   71.287445
H   42.621132   59.259346   67.563385
H   38.393784   35.420074   26.963760
H   39.360069   45.980957   58.077454
H   25.553240   12.631761   46.546455
H   94.685539   65.268059   92.887566
H   48.664776    9.473934   62.713177
