100
TIME:    1.728, STEP:  1728
H    0.465225   63.554916   97.563980
H   53.202797   98.433800   87.002007
H    9.457617   98.223824    3.050654
H   81.766647   61.456627   45.446140
H   79.693512   11.264333   18.851391
H    1.220337   99.336021   49.875767
H   62.404232   78.020943   25.584709
H   84.068901   38.095669   49.535378
H   11.150459   20.153366   91.315361
H   27.617594   41.194878   75.357628
H   39.520676   35.772175   73.299133
H   89.886688   10.306295   69.928169
H   33.344589   57.161003   53.379257
H   69.521202   99.749672   88.741325
H    1.518202   15.675392   67.710617
H   32.045837   60.593628   89.602310
H   85.138855   96.272385   30.685324
H   38.071030   10.668064   39.639938
H   72.176018   50.846466   54.398914
H   45.961945   69.116074   33.982887
H   61.734665   84.189514   10.343803
H   28.039860   46.380699   72.119667
H   62.672737   80.568504   82.909592
H   58.491600   57.406376   78.738342
H   67.780754   49.127602   49.311630
H   38.735645   76.118698   27.207224
H   13.071037   70.647903   34.256550
H   86.738297   37.096905   23.890409
H   48.744644    5.869915   75.489037
H   67.252541   48.072067   20.759506
H   84.076363   77.003418   72.673340
H   74.864197    4.771454   39.294441
H   92.075394   42.053185   53.468842
H   51.113609   15.361715   98.953995
H   37.819679   28.296730   29.951584
H   22.797764   20.226961   14.699327
H   45.536476   41.253761   44.624882
H   92.570427   27.326809   44.381039
H   73.037216   43.620293   76.506805
H    0.435536   50.414120   73.990372
H   17.151978   15.475280   83.055466
H   76.318390   89.410988   83.984512
H   26.125113   73.862244   26.288921
H   69.014839   41.731895   49.688297
H    6.764721   63.710278    3.979383
H   55.793941   95.875740   90.187477
H   54.326160   18.956034   42.388863
H   56.331699   13.174761   75.496788
H   15.542539   89.336693   75.544724
H   62.131481   57.050663   62.804783
H   43.412785    2.815922   71.636612
H   89.110985    3.393177   60.623249
H   44.725006   32.028259    2.509570
H   36.675869   79.013344    8.068872
H    3.193219    9.990305   15.069445
H   95.728348   10.715902   33.801605
H    5.800346   39.686440   20.334753
H   97.386810   13.699166   69.046219
H   26.560638   11.780419   78.824402
H   44.987919   60.608852   14.461247
H   68.704239   98.212959   79.666924
H   37.581055   11.860525   17.167183
H   91.441757   89.316322   15.010814
H   61.699265   51.194382   80.226204
H    0.908412   22.831276   56.487179
H   95.191628   56.369026   48.358196
H   48.928146    8.105224   50.490551
H   61.000999   16.363277   48.810993
H   43.026199   25.623260   51.856316
H   65.389954   35.056229   98.094452
H   67.160530   77.827492   41.422794
H   31.485910   94.175964   83.138084
H   94.322357   32.832211   17.439686
H   92.160332   40.028419    0.508387
H   45.485008   31.102438   32.392559
H   66.512779   18.320807   79.656639
H   23.845816   76.776108   21.608694
H   13.164912   37.730949    9.870034
H   44.381134   48.440281   36.957970
H   14.781248   14.842955   72.052467
H   44.697659   47.158611   83.267418
H   70.977585   55.512711   42.283524
H   27.133266   36.098389   94.483429
H   69.042000   60.028790    5.596230
H   68.190155   40.797218   80.242279
H   11.519176   72.528664   61.780830
H   82.563927   77.713242    5.940829
H   83.772552   66.946747   77.780769
H   91.542671   97.960411   14.062151
H   13.559711   38.181229   85.989388
H   94.739388   66.737076   69.953934
H    6.141557   25.467703   66.445610
H   96.156364   79.407822   52.598038
H   14.245049   18.048193   43.328552
H   26.716457   94.945312   55.793938
H   36.647324   27.493837   78.195404
H   25.441677   66.846870   37.810486
H   13.209769   30.950562   28.388206
H   26.394363   44.299023    0.305345
H   46.556015   34.317532   31.255043
