200
TIME:    0.215, STEP:   215
H    8.702946   62.557964   14.912092
H   27.741459   32.513195   88.882278
H   18.661688   68.043907   44.116814
H   16.999792   76.681557   45.153439
H   15.475574   83.095627   54.017941
H   90.431885   53.493534   66.289482
H    2.997033   55.321869   49.167469
H    2.328391   87.806824   25.959724
H   86.413193   87.881020   48.329292
H   11.741253   75.249077   97.058556
H   11.322280   94.060127   92.171646
H   30.674423   41.355556   11.551065
H   10.560580   86.178185   62.316307
H    5.585381   53.101460   41.061123
H   20.828888   71.752136   43.040104
H   30.029091   26.996429   54.862309
H   83.031342    6.547639   16.645838
H   37.155842   81.965218   43.965446
H   64.193626   30.607000   42.115810
H   89.976715   80.047997   38.439846
H   57.785049   75.510277   26.985836
H   90.585594   47.858788   71.538094
H   95.753845   62.723228   49.736069
H    8.078737   87.831352   91.664459
H    2.159833   11.698485   46.302418
H   18.681787   61.226868    7.782240
H   98.411674   58.295124   48.076691
H   93.936554   69.098129    0.665490
H   10.015641   57.289619   38.484753
H   94.179146   20.094627   99.490692
H   13.394132   50.404789   16.164248
H   32.380669   62.920395   92.987625
H   27.727356    8.447595   72.873787
H   97.253960   63.550644   37.853325
H   49.188160   90.834030   34.409252
H   33.877888   50.491962   79.189804
H   85.546921   74.968590   85.767250
H   34.151535   44.108627   16.291491
H   53.995506   47.295830   43.875927
H   90.322502   39.791294   64.672943
H   80.496872    6.391636    0.694476
H   12.094957   43.631123   40.572430
H   77.151993   88.356232   49.399975
H   37.336960   62.019833   17.854218
H   27.922848   75.532402   43.461739
H   41.411602   14.489118   42.415985
H   79.503036   27.436985   95.630836
H   90.724457   65.550987   48.546402
H   86.113533   29.700878   61.148308
H   63.012039   17.688684    6.770111
H   78.802948   70.812546   28.859505
H   22.093794   35.267681   63.004055
H   51.502613   95.137680    7.601150
H   22.778669   81.656128   81.332947
H   78.257095   76.940926   91.581879
H    5.626137   72.965942   77.829590
H    5.501831   16.650856   49.922764
H   67.135544   57.998226    5.754659
H   28.708687   73.994522    6.521832
H   43.681503   96.129555   67.456383
H   50.500484   15.864162   42.966923
H   89.487511   16.365660   48.874588
H   70.758568   24.688576   85.728348
H   23.520311   65.116669    3.109330
H   70.946495   75.706375   16.907310
H   39.720364   15.589866   32.413925
H   87.108986   23.689322   85.318611
H   97.481422   91.393089   86.776596
H   15.633243    5.515409   62.296234
H   45.380875   41.194252   50.983929
H   58.476131   76.159737   72.612625
H   32.843063   24.478962   44.939827
H   76.700333   25.230892    0.332874
H    7.050901    9.514199   59.844879
H   78.840622    0.466889   68.788216
H   52.681854   19.959229   63.040836
H   95.533249   29.019506   72.499199
H   27.481211    5.514702   48.822411
H   11.340492   28.579582   35.492161
H   68.652794   90.806374   95.447235
H   42.307041   30.524574    1.504709
H   25.537207   69.039810   88.630089
H   11.097250   13.392072   91.011185
H   25.489315   61.042107   93.036713
H   39.798473   99.059494   58.490681
H   23.962877   86.649033   28.303242
H   34.734745    2.732015    1.714011
H   75.539391   19.474796   10.499244
H   64.923271   71.988487   77.075348
H   23.569347   84.926590   55.140545
H   42.290813   34.676979   80.865685
H   84.229568   88.316116   97.822342
H   46.072083   17.144053   96.441841
H   61.148911   95.331818   68.418213
H   24.491423   57.264374   66.898560
H   70.307381   27.150349   30.237133
H   78.966469   15.143869   97.252525
H    7.581959   28.050230   48.356869
H   37.584389   70.028465   52.792652
H   66.769745   97.521118   27.244303
H    8.750854   79.735168   67.762581
H   89.642662   76.278343   66.002502
H   22.661169   38.083572   30.153463
H   20.674606   67.893326   89.169594
H   25.371880   27.801273   24.277008
H   86.433380   27.996876   45.061214
H   64.474030   29.786360   56.375580
H   64.898445   33.314503   19.708298
H   72.161224   40.405224   97.923714
H    3.563647   28.408957    5.414908
H   46.865620   96.284027    0.778261
H   84.990120   62.716541   90.226395
H   57.528248   79.984550   94.479156
H   63.308861   19.936316   75.598663
H   64.684532   80.927536   27.649229
H   15.058758    6.528685   77.806572
H   33.602810    8.090685   83.888657
H   40.897953   25.765953   34.478233
H   17.912910   56.775005   84.775238
H   70.122879   46.175900   48.410160
H   40.293648   21.593304   88.339035
H   19.367798   28.072262   47.452785
H   31.633673   22.876949   23.287525
H    4.445644   68.218521   18.959974
H   77.664436    9.571078   93.639969
H   46.806438   61.668358   26.014088
H   96.008049   49.073196   72.020264
H   75.975510   87.373894   34.791431
H   92.160065   53.388611   85.459991
H   66.533455   24.267839   66.075699
H   47.599777   86.078339    2.455961
H   82.659592   85.803421    8.737424
H   92.519386   81.378418   97.189186
H    2.146460   12.361968   49.399342
H    3.191063    1.822153   57.565681
H   63.023933    1.658936   84.049911
H   68.851326   86.500816   54.094116
H   91.005104   65.001411   83.593384
H   45.659775   43.984016   71.556000
H   43.434402   10.288961   96.152145
H   49.379978   63.803852   14.102396
H   58.389191   40.251225   45.664101
H   55.809162   56.300842    0.227478
H   58.858635   27.432684   77.710152
H   39.126820   70.596199   48.251057
H   45.024128   61.544956   31.043507
H   44.139977   96.887276   47.460899
H   43.335083   74.349289   68.968407
H   64.516937   65.835983   98.192986
H    8.665026   88.401855   90.932503
H   77.101418   60.885372   51.532928
H   32.734989    7.801437   48.935772
H   75.014366   32.773380    4.342255
H    9.249019    0.568900   76.570312
H   12.621193   53.218811   60.300884
H   62.759949   43.466915   53.291821
H   59.049572   60.133904   80.459763
H   45.690632   37.061012    9.138433
H   13.525998    1.828531    3.532021
H   63.959961   57.963867   77.281677
H   53.710377   85.425049   84.080597
H   44.777889   23.185858   35.760555
H   64.143227   35.659901   37.242447
H   10.357030   19.445236   72.268433
H   59.193558   21.240068    9.578902
H   11.482968   65.234612   62.438484
H   75.330322   97.971321   51.956673
H   23.610374   29.795116   46.978931
H   93.733261   28.251511   36.915966
H   25.332073   10.648375   90.684875
H   79.842590    5.336511   35.978172
H   47.026588   66.375610   57.381344
H   37.189907   78.528458   91.127457
H   71.531792   75.143570   73.664902
H   72.599823   95.224609    0.406889
H    0.135514   47.525810   23.262760
H   35.674568   52.140186   85.862167
H    1.508433    9.177017   64.560532
H   76.240913   21.960733   69.427238
H   87.489761   54.186928   86.032333
H   81.874245   84.293533   42.300564
H   18.723412   30.075527   68.703499
H   66.786041   90.191696    5.575228
H   50.936562   25.174038   76.270561
H   85.199669   89.418709   78.499832
H   98.737053   36.012817   83.829079
H   30.481560    4.952803   98.711258
H   91.622108   66.165596   24.651789
H    7.342360   61.061920   66.257690
H   49.158955   58.409306   65.387161
H   46.625984   31.851467   79.479988
H   47.857861   84.249802   24.942820
H    3.545163   16.929266   57.233532
H   35.540348   62.533253   32.809456
H   85.752533   55.371994   21.898062
H   75.267105   10.322101   29.908884
H    9.295102   84.877724    2.622958
H   29.636047   97.903046   47.671764
H   12.246691   11.541943   79.135155
H    8.268495   35.839699   98.096123
