100
TIME:    6.649, STEP:  6649
H   67.677567   12.275608   93.058670
H   16.846676   65.165154   97.345680
H   94.058151   52.259422   45.293987
H   82.592621   58.711761   75.709351
H   35.616562    5.704035   85.424088
H   24.910831   94.004738   37.218868
H    4.496876   10.309200   10.413614
H   97.288002   63.823780   97.704124
H   90.182762   47.019196   81.556389
H   93.151619   11.854233   68.052986
H   81.781250   33.779331   99.284523
H    2.065225   56.970600   19.645874
H   19.780289   59.511951   64.343437
H   25.861977   84.581795   63.233158
H   61.364754   76.111382   31.152225
H   34.182693   30.183266   81.115723
H   89.433998   21.750919   78.673042
H   43.253094   71.298752   69.035194
H   48.824833   57.288849   13.657939
H   13.383011   64.610146   69.027458
H   69.715637   94.287872   76.776344
H   99.826447   52.910629   53.054504
H   96.968468   40.546333   42.115448
H    1.269601   16.369600   13.260540
H   91.778511   58.862022   85.644264
H   16.236429   30.098289   65.174034
H   88.728264   66.088028   31.894140
H   71.517715   66.792549   86.553421
H   55.747078   52.341137   42.869751
H   55.945072   26.277306   11.965187
H   77.736382   18.284573   83.331291
H   85.579254   68.804184   83.732841
H   38.703686   82.010109   96.791382
H   59.038017   64.381546   91.640152
H   15.481054   56.247444   29.581682
H   50.623669    6.206681   98.522011
H   17.524960   61.034790   32.380405
H   89.177361   37.273548   91.643456
H   64.418121   36.544975   99.975220
H   36.932079   89.726089   61.165051
H   80.839813   84.326317   98.993263
H   39.872543   67.677200   19.403664
H   68.508575    3.373289   81.738091
H   54.781437   24.245932   30.839937
H   79.903816   69.554642   25.083376
H   92.298759   89.736343   10.173517
H   93.679977   86.432816   89.288490
H   56.594509   63.852524   79.980377
H   59.384209   81.779640   79.243576
H   65.336182   31.935450   18.633528
H   43.045040   27.725767   23.517155
H   28.266617   46.762161   37.570869
H   46.793377   60.561890   16.704683
H   22.717209   98.715668   25.217827
H   11.391460   41.291611   56.902859
H    1.877081    5.539620   66.279144
H   17.770258   97.692101   88.362602
H   30.956995   48.971703   42.293198
H   14.670058   19.707462    1.039654
H   20.253929   38.852711   74.497215
H   79.124474   69.360855   95.988205
H   62.931923   66.054123   94.506882
H   25.460661   53.567421   77.528564
H   99.614059   77.983017   46.620892
H   96.232285   29.799282   14.761382
H   92.889008   11.731571   39.324615
H   54.106949   78.234375   88.075394
H   21.074028   97.800087   84.063248
H   88.287056   72.031601   43.219547
H   65.089317   82.567802   87.732239
H   10.896246   43.003510   82.390358
H   25.726961   30.857773   43.430725
H   73.463837   89.420105   91.266907
H   83.838264   28.604549    8.092958
H   82.745598   38.120808    5.436991
H   82.844475   33.711018   48.535538
H   70.653900   50.313511    8.662603
H   44.362438   15.958044   81.639366
H   80.356331   33.988514   91.863411
H   73.451920   46.817451   48.103844
H   40.983429   98.068619   77.384384
H   40.232468   87.590546   30.749458
H   38.439583   18.312780   63.161522
H    7.590676   81.128319   56.132885
H   28.578474   32.986443    3.206470
H   98.261337   53.284439    3.509854
H   11.226473   19.916328   40.593407
H   62.963219   73.014954   26.638054
H   93.667831   23.966379   73.810555
H   78.478195   35.718433   61.900368
H   96.127098   32.459068   73.876511
H   70.257568   95.548065   60.212738
H   11.667140   27.022175   33.181953
H   89.867165   16.559900   75.130875
H   41.635704   54.153473   68.873230
H   43.101746   33.169159   24.019653
H   34.835625   49.252090   54.799362
H   25.443216   15.452146   45.402298
H   91.970177   65.514198   88.113503
H   52.205097    8.011230   57.222004
