100
TIME:    9.442, STEP:  9442
H   78.798248   56.145149   90.501602
H   39.710587   16.511433   73.454216
H   42.070179   53.198997   12.505360
H   83.061417   43.640739   22.613981
H   10.590799   29.574921    9.694956
H   81.600830   90.978874   13.818419
H   58.113430   98.906059   28.829876
H   77.763718    5.455579   41.260963
H   21.525490   78.482101    5.746557
H   16.863646   51.958134   77.413216
H   21.983185   46.160339   30.246004
H   95.464912   96.969460   20.837032
H   41.664719   90.477074   86.787552
H   87.570480   75.973000   75.780983
H   95.288521   26.626839   96.835716
H   21.880936   85.897018   49.272522
H   64.837532    6.486548   32.930862
H    2.978491   35.391075   72.218826
H   92.330170   74.457855   60.801212
H   38.131092    5.302465   59.187859
H    3.974657   16.236597    0.971635
H   67.594086   56.618378   15.204727
H   59.677895   17.837694   62.203873
H   41.760014   49.781952    5.828676
H   91.884995   37.362930    6.268234
H    3.085551   47.753342    2.347289
H   47.885132   49.985172   87.309616
H   35.853256   97.160355   78.875572
H   16.478573    5.744362   10.843956
H   63.041161   57.150009   34.000038
H   87.657722   68.737350   62.358109
H   61.930958   91.640198   25.170815
H   35.439209   77.660919   48.406883
H   77.048874    8.419744   73.975166
H   45.970528   44.778084   99.510773
H   93.414719   24.970812   89.742744
H   85.409515   58.748787   52.457966
H   73.735313   86.160835   88.737160
H   46.523136   75.692345   29.312134
H   73.861954   28.254509   80.912003
H   89.958054   80.159698   64.793907
H    4.493483   78.629974   61.990101
H   92.545013   20.128773   83.478081
H   76.445961   71.132973    3.922999
H   37.632416   59.372173   64.091629
H   56.248688   43.002514   21.520506
H   15.510903   38.327938   16.104628
H   56.763912   92.619537   52.794621
H   41.028244   50.463139   67.830750
H   23.971006   74.451958   23.347897
H   43.856098   58.155777   51.422714
H   64.010300   87.591599   54.227608
H    4.718523   76.756653   54.496979
H   58.032852   53.152168   48.465157
H   89.008461   86.056641   80.647339
H    5.355759    2.601656   71.198822
H   94.834396   17.101845   54.000252
H   22.985022   85.206490   70.350731
H   34.949596   37.728241   86.623131
H   35.944019   53.532558   95.057655
H   55.312183   39.474361   78.227654
H   63.802879   40.057266   68.136375
H   15.077628   62.977928   86.004181
H   91.405029   93.197571   70.791580
H    7.091307    6.725590   74.860878
H   21.312378   72.883842    4.469211
H   30.019573   74.795044   22.922207
H   28.142380   57.535652   17.584808
H   27.489801   71.344437   68.048279
H   21.787094   22.892038   81.817291
H   22.198891   52.965046   48.892769
H   95.741798   38.089256   48.140049
H   91.355957   51.269352   19.655682
H   22.355221   51.835125   42.141579
H   17.301466   42.218082   17.200232
H   48.874168   12.715987   60.601295
H   24.317982    8.570553   58.200775
H   75.574364   33.338951   35.896606
H   14.292586   25.784588   23.030069
H   36.480309   94.668282    7.484520
H   95.658424   26.964182   44.318901
H   49.815460    5.708979   97.086464
H   15.100531   65.021889   29.151386
H   99.744102   20.131626    1.037298
H   92.584641   58.265091   32.457550
H   33.983746   55.875992   97.464203
H   97.764671   16.841850   73.774147
H    7.881820   49.518349   97.680908
H   51.633549   68.456841   50.967415
H   31.538950   20.806213   61.743004
H   10.428625   83.270493   32.859886
H   76.911285    5.608389   13.435777
H   90.704010   10.820868   49.168938
H   58.794044   85.931259   64.997383
H   93.343094    3.972024   33.051643
H   73.792068   22.877653   79.757233
H   13.140998    9.535716   94.169693
H   20.052065   53.649517   89.328453
H   58.917900   77.575035   54.171886
H   25.690651   36.337803   88.162018
