100
TIME:    3.737, STEP:  3737
H   64.604156   79.319427   95.724686
H   97.318062    7.358217   13.728537
H   43.990372   42.758369   79.475578
H   82.103851   78.685417   35.325169
H   61.699081   72.294533   64.379150
H   70.074593   97.159523   48.834030
H   57.112827   13.677055   82.691200
H   26.165466   11.900502   65.076027
H   61.765343   26.996185   64.857567
H   72.718513   70.041145   54.028481
H   52.648392   16.608555   79.782341
H   13.208611   11.007036   26.924932
H    5.552432   35.613815   53.701042
H   70.046638   93.557381   41.627888
H   25.957417   36.223099   71.139534
H   51.268112   84.877312   22.837812
H   23.599953   29.144314   13.582205
H   80.997154   12.970454   69.988464
H    3.473639   35.125412   60.240307
H   91.838402   26.456938   70.764977
H   42.517838   84.187195   55.812500
H   20.650177   49.044907    1.038226
H   35.849693   64.229439   25.430763
H   71.833702   81.501129   29.531116
H   95.928253   89.796234   64.138405
H   29.521784   16.259874   38.901726
H   39.833157   87.134537   74.119362
H   17.224928   30.870224   90.296410
H   92.427887   88.142075   80.522591
H   44.285889   98.348595   80.469574
H   63.131931   57.158810   13.719398
H    1.713777   49.260643   53.311241
H   33.586407   95.066048   34.455429
H   35.999222   31.248909   14.317398
H   87.878906   76.431511   52.284515
H   97.478249   78.046844    7.787375
H   38.226006   67.678696    2.926386
H    9.536040   90.560570   86.151268
H   87.332428   99.996147   82.169380
H   11.210159   62.338760   32.053295
H   79.854523   84.409210   30.387800
H   95.760849   79.577438   78.368896
H   43.429806   85.909622   71.400230
H   40.725845   75.401123   46.117729
H   32.498890   84.448273   75.895813
H   29.875217   34.194355   98.341682
H   70.929977   28.069084   61.337646
H   56.438992   33.859848   99.802345
H   74.264694   22.951469   95.402893
H    4.253543   87.617088   22.294010
H   43.259510    8.860062   92.819153
H   86.744354   16.973236   28.734783
H   86.392113   43.677124   85.830482
H   90.153801   46.234940   96.720795
H   43.248093   86.088074   32.131130
H   98.242050    8.603308   65.410507
H   33.161274   81.717018   11.407309
H   47.791252   23.974209   17.298557
H   85.006065   96.665497   24.591248
H   12.416141   15.025793   57.321419
H   95.433083    4.785323   23.030239
H   66.281181   93.158615   26.266632
H   27.764837   52.277153   77.213158
H   99.652031   62.122856   25.680355
H   80.651100   62.377079   43.579929
H   71.775368   56.495461   67.144409
H   87.741684   77.559113   47.485088
H   22.225792   31.260893   44.852810
H   43.154449   81.269348   25.854160
H    6.098433   36.102699   93.864075
H    3.364986   41.134697   17.320148
H   65.833359   27.501541   30.227001
H   63.332153   33.458775   65.934319
H   47.946880   12.894249   81.114494
H   42.346943   33.966267   84.687660
H   14.000865   47.079857   44.476521
H    6.249949    2.647877   57.139973
H    7.551386    6.366796   20.819834
H   40.714912   42.541981   59.379295
H   16.255959    5.428181   98.975426
H   84.004776   67.942642    3.340996
H   21.715691   68.633011   74.291748
H   54.239033   69.634857   85.830750
H    7.250269   31.942570   22.099968
H   70.368347   15.132294   85.492249
H   65.288086   46.321365    1.291699
H   16.740515   31.642586    1.737827
H   16.109663    6.101051   56.879349
H   33.238144   86.102333   97.626961
H   35.937428   55.526947   57.804222
H   76.956024   75.217903   12.380410
H   54.795639   76.546440    4.732961
H   25.002728   39.646019    7.992472
H    8.422470   39.909447   78.784706
H   91.978966   14.991459    1.960061
H    2.582456   48.160835   74.427956
H   65.976868   82.139473   22.271059
H   20.583723   48.056000   96.239861
H   30.691216   52.959034   32.024040
H   71.329369   82.735451   37.742790
