100
TIME:    4.713, STEP:  4713
H   98.601967   89.815285   94.831131
H   70.313820   60.255898   75.276306
H   60.766861   12.976211   68.023186
H   82.267670   38.475456   81.827888
H   52.957138   50.525238   37.915039
H   54.939274   96.102150   45.490604
H    5.962701   79.582336   59.015743
H   49.453789   96.336914   75.462395
H   37.773399   33.157745    3.419691
H   46.045906   84.055061   92.244781
H   61.863251   55.880283   85.769318
H   75.959663   59.928963   57.452415
H   43.320786   76.585594   56.714600
H   21.721016   90.549080   15.900981
H   37.828697   49.043060   24.222218
H   12.024273   99.512711   41.821228
H   45.115761   93.699615    2.431333
H    1.852397   65.497505   36.148876
H   18.674961   76.070358   11.662256
H   65.538109    5.730192   37.215553
H   84.600624   87.023163   29.325672
H   14.220245   50.340561   17.922760
H   22.818687   56.291695   97.504852
H   81.152710   93.206696   57.045517
H   61.020050   12.394539   71.346413
H   25.061808   87.327988   47.228741
H   55.672333   46.563953   93.479713
H   34.872753   76.426620   22.558016
H   13.650924   76.692314   34.385384
H   81.710938   74.192833   58.058449
H    1.540274   44.679134   36.501381
H   63.338909   22.297630   62.958031
H    2.334027   23.656572   22.381216
H   77.236771   41.804352   73.200142
H   63.618896    2.653341   11.717873
H   82.330872   54.571171    4.610195
H   31.837358   31.936501   79.831345
H   69.193382   72.704369   55.023823
H   46.136326   78.729546   87.587814
H   19.281862   70.968697    8.842962
H   13.151718   17.898825   53.381939
H    8.043127   23.379435   24.221125
H   51.836666   91.762405   41.898643
H   78.402222   91.753174   41.547585
H   47.837460   45.939560   59.414814
H   17.283543   52.810078    2.306711
H   78.554977   81.146507   70.707191
H   56.491116   43.912338   60.191658
H    2.798224   42.118626   56.472252
H   24.723392    2.466223   54.029877
H   43.185047   14.633705    3.109366
H   34.174706   26.407827   64.663666
H    6.633165   49.336304   29.144938
H   67.546867   30.307327   39.787376
H   65.538910   71.625496   40.433743
H   99.463242    7.576104   32.185165
H   95.036224   53.555153    4.232911
H   75.115860   31.803312   92.158432
H   61.979820   37.905380   49.664032
H   48.008671   90.044571   29.561653
H   57.000458   59.394093   46.932709
H   31.641085   84.074142   82.106247
H   94.025749   85.676193   10.285912
H   66.674049   67.436874   99.179245
H   19.388739   84.424805   34.470646
H   11.818470    7.975735   24.852667
H    9.435434   11.304038   94.605209
H   54.806648   87.078323   91.511253
H   91.796799   11.140198   64.642975
H   25.872053   85.192871   91.808899
H   72.373329   74.727341    5.611049
H   85.358612   95.109482    1.685119
H   99.694382   85.182198   40.907913
H   26.456890   51.132275   23.122795
H   89.404060   35.358723   58.675503
H   37.076752    9.631392   78.803848
H   94.864578   18.054474   74.400475
H   53.405636   42.549152   74.722038
H   87.518578   39.675159   70.268929
H   68.390747   52.274517   14.891954
H    3.098096   78.039810   61.673794
H   94.946800   75.007034   92.678978
H   15.981768   85.937317   78.786484
H   74.395981   15.460501   32.957169
H   22.845411   54.084991   90.879997
H   42.823055   82.171471   69.068207
H   81.925331   60.679428   48.277603
H   31.817610   27.960054   46.730057
H   53.492050   31.759333   89.644539
H   49.646542   15.369110   92.696213
H   16.898094   27.920658   32.991741
H   27.013151   49.941750   23.330763
H   87.566032   68.933525   83.468063
H    2.756480   99.110474   44.591663
H   75.105675   27.567719   24.385727
H   83.196045    9.620697   24.016579
H   88.506828   38.149929   66.139984
H   24.165388   56.366058   80.617546
H   84.196747   57.166187   50.274513
H   31.953501   57.688015   43.722301
