100
TIME:    2.651, STEP:  2651
H   38.045563   78.911156   96.718948
H   27.527916   48.478470   45.224232
H   25.323088   64.627563   92.218712
H   81.921570   23.429403   94.852356
H   71.426285   85.246857   93.825897
H   86.910774   98.336067   41.283367
H   14.031971   40.346245   97.764503
H   11.522926   17.947588   64.788994
H   88.461296   31.410645   33.215694
H    2.396917   54.447792   11.498897
H   53.665466   72.911316   84.391525
H   54.661079   56.571564    4.228391
H   74.631416    1.318044   61.640282
H   23.819069   96.904732   58.983440
H   12.746151   33.228882   23.340685
H   94.932816   79.862885   12.985224
H   10.929540   57.312523   14.719338
H   57.795479   65.782494    7.638721
H   86.555641   89.565399    3.028692
H   21.096886   49.516544   96.825081
H    6.962541   92.301544   85.290085
H   16.534302   47.603226   93.521164
H   50.349358   73.061806   56.502350
H   72.734879   68.476288   10.186803
H   34.768181   75.924408   56.121178
H   34.503445   48.616856   40.693329
H   33.479836   32.277637   52.572613
H    8.858643   80.179436   54.401310
H   68.814148   89.611671   31.857244
H    2.645127   25.228043   94.135887
H   20.388048   59.774975   99.640266
H   33.142830   79.266731   53.847710
H   57.091381   74.522636   36.619972
H   90.111824   30.774338   60.068451
H   14.874526   58.524872   86.156013
H    3.048140   92.734367   11.526937
H   34.064644    7.449934   17.353575
H   54.419014   10.433216    9.515903
H   33.173347   23.655455   87.410889
H   13.499216   64.006493   46.609737
H   54.073383   47.144680    4.801978
H   93.364372   30.836357   27.347029
H   34.075451   79.397202   92.958244
H   10.075186   57.203018   39.934700
H   26.701330   27.296452   82.963966
H   43.886036   13.480549   93.933784
H   62.444088   69.008026   50.906174
H   56.380993   22.677847   32.606758
H   42.520180   12.894199   38.724670
H   81.483391   71.095757   98.251129
H   43.342365   13.706499   81.368561
H   33.965580   17.745823    0.027524
H   63.872017   37.380127   48.904228
H   15.303608   63.957672   48.797333
H   29.714165   90.905838   22.900282
H   96.883224    9.745876    2.380508
H   64.312096   13.053660    8.119616
H   28.657562   26.533562   45.272659
H   99.356499   50.780270    7.964117
H   84.080048   31.552732   88.209846
H   26.928076   55.286777    7.703696
H    4.824913    3.267609   75.406143
H   54.049229   26.375227   51.689377
H   25.078386   56.215279   55.168530
H   37.544727   49.113537   42.443771
H   38.489998   10.483803    2.933065
H   74.873695   40.014416   95.051895
H   97.242912   69.150635   92.935730
H   89.027306   59.302376   93.965797
H   84.093323   81.481026   96.150879
H   37.852013   15.025435   30.349133
H   55.379341   63.543564   50.716148
H   34.142014   87.177391   93.773674
H   71.851402   81.619385   45.651741
H   89.987083   32.416874    2.361284
H   88.328682   77.477654   17.551254
H    7.648211   96.775528   37.934132
H   56.529125   77.378975   60.846363
H   88.638077   45.731907   47.257576
H   69.515297   64.576584   92.535263
H   62.760212   56.707470   38.432346
H   40.231621   61.540604   65.102516
H   85.529404   51.506134   82.394592
H   32.535320   39.011078   21.290222
H   23.247864   83.062943   90.767799
H   90.277222    6.429230   25.876842
H   44.209023   10.603638   49.953262
H   98.631027   93.049088   68.175575
H   10.698095   46.568398    6.511267
H   31.954193    0.204096   18.985161
H   32.512482   16.578587   89.445999
H   74.438232   94.878227   84.036354
H   55.377125    7.067230   24.004009
H    3.456341   74.036446    5.562414
H   10.755920   12.268631   77.004234
H   12.883361   91.046700   30.521530
H   52.178268   19.815777   84.727974
H   16.598387   38.809357   13.618040
H   82.426018   48.277714   22.988708
H    3.877364   10.610126   42.356720
