100
TIME:    6.082, STEP:  6082
H    6.021852   64.271782   93.577774
H   32.504219   34.438686   61.596424
H   84.307648   11.467586   51.951496
H   82.497452   82.071442    6.787055
H   40.695129   60.256546    0.798152
H   33.705318   94.619011   81.067467
H   34.212902   72.024300   66.073402
H   41.853088   14.772750   49.765408
H    4.120766    1.533797   17.246317
H    8.639414    3.712155   45.852634
H   34.522202   10.964951   53.899902
H   23.707512   28.549656   60.005547
H   55.961838   93.799339   20.683525
H   53.936378   86.329445   20.082638
H   54.477455   26.758541   58.417660
H   56.980011   79.775002   28.182167
H   35.028938   84.247719   27.056799
H   31.127691   98.889130   88.691933
H   39.995739   33.500908   83.785370
H   28.657646   76.653358   30.423426
H    3.362211   50.735615   92.167778
H   45.467606   52.157928    1.339814
H    4.539176   45.157707   58.337448
H   53.953083    9.586641   55.371960
H   12.057490    3.825951   81.456825
H   18.821135   46.861023   18.493835
H   37.621140   89.655350   20.642561
H   19.360561   40.326897   67.813766
H   43.418358    0.898936   69.672821
H   34.203266   40.310417   66.890152
H   55.421898   67.439384   28.190453
H   49.778385   84.472473   36.222832
H   98.764397   23.494043   45.711548
H   35.081367   16.343590   15.526327
H   29.589886   99.166542   95.079712
H    1.335837   61.797127    0.304419
H   63.141006   81.798950   87.703224
H   12.613194   47.651302   51.630527
H   88.348816   48.899651   54.921181
H   90.337036   42.806980   16.553137
H   19.589943   64.868568   85.634987
H   87.656067   65.453705   90.456535
H   63.628666   99.971893   40.783234
H   90.987839   14.729025   75.401085
H   29.087635   91.928024   76.563339
H   99.618126   78.921677    7.869994
H   89.250290   55.598038   83.846550
H   56.564228   58.012604   44.897602
H   42.811813   28.738663    1.859457
H   53.435711   23.303282   58.279846
H   43.083973   82.465454   17.540970
H    0.707017   99.374908   74.790627
H   35.031345   57.274231   49.636501
H   35.846214    7.967179    0.199166
H   56.537193   91.602158   52.079517
H    1.170883    6.136049   85.581161
H   81.823967   14.053391   34.436348
H   73.177399    2.517365   56.897324
H   69.950317   95.747978   44.566826
H   57.668350   95.270157   90.624046
H   43.358204   95.731339   40.195011
H   83.055855   71.331680   20.162132
H   86.967583   92.257973   16.409454
H   60.680893   74.894348   62.016651
H   73.729126   75.085617   61.959248
H   27.719193   39.918755    5.798818
H   99.597763   58.630733   60.701309
H   60.240425   65.373390   56.957371
H   60.029888   12.772591   78.780701
H   53.603729   54.050179   88.926178
H   28.902359   81.581589   89.190620
H   72.477676   49.675293    1.916936
H   10.433216   17.466324    5.803474
H   96.322716   64.487877   41.781273
H   55.407482   37.311871   62.454971
H   69.442940   97.371513   86.687927
H   19.160778   99.398293   98.611153
H   17.723751   53.034111   50.326851
H   53.165653   35.653973   85.538994
H    1.258521   77.704140   96.951530
H   29.887583   92.202744   43.495548
H   97.683823   83.913422   78.181572
H    2.573904    8.831298    9.161865
H   68.580437   32.609398    7.920933
H   56.186424   68.453682   58.170685
H   11.311573   32.455391   64.135742
H   73.357750   61.141838   13.556738
H   53.844292   18.385519   32.516907
H   81.901474   55.536003   78.447884
H   28.607901   59.047832   41.633682
H   72.923149    1.842872   61.902508
H   28.305307   52.903671   49.411049
H   75.321442   10.008542   89.334976
H   35.069370   82.161079   36.898865
H   51.438118    4.940367   55.843723
H   96.269821   55.559845   53.305771
H   79.841942   16.713938   87.407745
H   26.537661   87.395889   56.783653
H   18.980408   63.067410   35.606094
H   16.988214   22.561283   11.841701
