100
TIME:    3.361, STEP:  3361
H   90.031891   13.800423   96.068924
H    7.777451   86.972931   90.010910
H   37.527298   15.707839   83.887566
H   82.040741   94.176140   55.936436
H   65.066879   42.156475   74.574341
H   75.903694   97.566872   11.596758
H   76.819466   88.288216   53.287514
H   55.718323   79.370834   99.597389
H   71.008141   63.146942   88.523949
H   82.994026   64.642342   39.303688
H   87.623001    1.479843   16.001291
H   27.560478   92.160400   53.689186
H   29.469543   58.362228   91.073051
H   88.664192   94.716316   13.013081
H   21.383350   69.809280   89.212044
H   66.385910   17.763885   54.049171
H   53.835548    4.275629   79.353439
H   72.964928   31.255363   83.023621
H   97.616890   19.350695   40.432262
H    1.969917   34.441395   45.165123
H   64.830215   21.618973   66.016861
H   84.602692   48.545761   33.058060
H   40.869835   67.287422   36.189087
H    6.768221   76.991608   57.457447
H    9.375955   19.614899   61.361549
H   31.247278   27.463396   74.143944
H   72.256805    2.763294   66.660866
H   48.950024   13.319809   77.869408
H   84.252228   54.028061   98.296761
H   29.868256    7.655072   50.578217
H   48.332554   23.443174   43.467323
H   77.972847   59.648033   88.119469
H    7.101248   22.575344    0.582375
H   20.111553   65.707161   30.156662
H   97.224976    4.854241   29.389801
H   64.781349   48.509693    9.085382
H    2.163050   81.448227   73.299004
H   25.075829   97.439598   59.616711
H    3.202284    8.187582   18.606333
H   46.624516   97.537262    2.470316
H    5.551672   71.506012   21.529402
H   29.553642   62.703804   60.703735
H   40.191097   83.654861   44.241917
H   64.736465   69.101562    9.355067
H   65.112694   99.284943   43.721004
H   34.726109   27.022724   96.815559
H   67.992477    7.619904   57.726013
H   56.418911   29.987913   76.537575
H   63.272209   54.090691   10.401654
H   96.368950   81.896996   48.590946
H   43.288197   45.160904   88.854675
H   68.471039   51.864037   53.419537
H   78.595116   41.496948    7.667194
H   98.863029   52.370987   80.128510
H   73.185349   53.133942   28.933958
H   97.771591    8.999182   78.210434
H    9.325438   92.566261   75.646477
H   75.789299   59.482712   26.984562
H   55.350777   80.778900   53.458126
H   37.227219   86.125504   68.015755
H   71.715065   22.270733   52.344997
H   79.626152   96.658371   43.280609
H    2.238121   77.934380    2.996621
H   73.834160   60.077507   35.889889
H   65.728371   92.406288    8.564198
H   94.873756   75.187599   44.912354
H   17.909218   64.558380   29.332045
H   48.198570    9.756042   26.877836
H   24.413544    8.286293   49.437351
H   98.480530   17.190798   94.655823
H   15.305035   66.717339   21.831104
H   96.837753   39.980179    2.697969
H   87.847656   52.056248   75.572990
H   56.225811   36.688568    3.455579
H   24.219313   33.429829   56.184727
H    5.111512   22.980844   69.775818
H   72.112679   35.237350   50.490437
H   89.886215   30.952604    0.054108
H   22.685431   43.646412   55.182457
H   34.695656   25.906055   31.367966
H   76.649551   64.052750   80.868103
H   93.503540   66.177444    5.732420
H   30.449301   63.358246   50.018497
H   81.381165   99.766693   56.440605
H   88.676086   38.652348   21.941048
H   73.939941   32.508804   75.181198
H   91.628304   58.980843   83.808701
H   10.058241   36.204453   60.789322
H   25.434204    7.037483    0.702389
H   69.181793   70.996292   44.364586
H   61.568573   54.914867    4.439981
H   26.972837   48.271408   97.567696
H    0.901319   28.363607   78.915733
H   72.081825   17.101730   53.432755
H   98.479332   48.672306   93.319847
H   71.526398   63.008980   93.848732
H   95.822327   60.561474   43.895607
H   19.203901   44.854584    2.257509
H   48.603081   51.338245   63.518974
H   47.974773   92.385597   73.964478
