200
TIME:    0.445, STEP:   445
H   15.770464   61.794643   18.844950
H   29.791458   35.870930   98.219360
H   13.841021   78.110970   55.445549
H   24.752764   79.369850   39.138996
H   13.033606   88.924942   50.711094
H   82.949585   47.250973   59.481594
H    6.329307   55.158676   53.619297
H    7.482562   97.738770   17.795700
H   95.753784   84.432915   42.718445
H    3.644843   72.027336   87.986443
H   19.339033   98.973457   99.439865
H   31.625504   47.494587   22.510075
H   16.205647   93.811394   52.889732
H   94.714188   54.071842   52.144192
H    9.724447   73.522690   42.474194
H   23.325027   17.519844   49.900723
H   93.851196   17.319662    5.478979
H   31.694174   93.021965   39.870712
H   71.846138   22.280222   45.501621
H   90.708450   76.889427   29.523907
H   60.545288   86.991676   16.448498
H   85.465202   56.650139   62.674797
H   88.866409   61.050941   44.217346
H   12.950358   89.928192   90.943268
H   12.156860   20.948809   38.095402
H   18.491396   71.434074    0.185881
H    2.865631   62.910145   57.324280
H   99.214874   78.586121    1.270683
H   19.702797   50.298653   37.137974
H   83.785698   26.256031   91.534607
H   13.093848   60.013859   16.445448
H   28.198196   68.311020   98.650238
H   22.170029   13.396678   75.683159
H   89.641808   63.801575   41.873482
H   38.150715   81.330246   32.659756
H   26.364880   45.247860   81.827209
H   92.148331   70.004372   87.493935
H   22.774900   50.058144    5.950247
H   45.483162   39.059860   48.988422
H   88.116768   38.845478   55.688568
H   80.565308   95.647453    8.328678
H   23.543016   38.808163   33.752552
H   73.010757   83.072647   57.940395
H   36.824570   73.190483   26.080097
H   35.781315   82.549690   51.761757
H   38.174946    8.503409   44.917397
H   83.837296   16.168789    0.673915
H   85.125015   65.547478   40.277969
H   95.008415   20.972698   61.314133
H   54.781334   18.726625   97.039574
H   73.331604   67.901398   19.744400
H   13.301633   39.226421   67.949150
H   57.705074   88.556244   10.609620
H   19.355570   86.509796   84.738937
H   68.521683   71.825798   84.143448
H    2.677700   67.299820   85.361023
H    4.845440   17.521217   47.455570
H   69.648361   63.344982    1.603441
H   23.855457   78.437576   12.084642
H   38.361946   94.838051   63.204597
H   49.755589   11.376801   36.247066
H   93.620384   16.910513   50.637375
H   77.095009   29.453190   77.968796
H   29.092993   65.444809    8.244534
H   74.643776   79.135178   26.312389
H   30.698196   24.525536   36.548141
H   78.517677   18.837847   90.070503
H   96.193428   91.916008   91.330200
H   23.814365    8.623528   59.385086
H   44.056908   45.203003   50.971645
H   58.375233   80.137779   78.764816
H   26.379019   18.433372   43.329834
H   84.000137   29.207180   92.631248
H   14.543949    4.458656   66.540504
H   81.641220    4.190053   57.973625
H   58.495377   11.839186   61.537884
H   94.561111   37.581860   69.245872
H   18.962286    9.702877   40.957573
H   13.089111   38.826653   30.398090
H   65.187141   89.523643   84.539642
H   52.068775   26.637341   98.090286
H   35.650490   64.903839   81.519798
H   10.199909   15.914979   84.281677
H   17.989029   68.563011    0.533030
H   31.608128    1.491631   51.972622
H   30.442770   78.601700   23.515377
H   45.043087    3.211284    2.241302
H   73.626701   10.914504   19.174341
H   71.960251   72.556221   77.909119
H   22.417347   95.235809   52.610180
H   32.649281   36.662491   79.842659
H   82.627472   90.334091    2.840906
H   56.998100   14.550077   89.891319
H   50.835304   87.068649   74.733597
H   30.319422   54.153183   76.477798
H   60.782539   32.292675   19.422981
H   82.086433    7.188650    7.158054
H    1.259117   31.624239   50.534527
H   32.372749   67.724464   53.607738
H   70.768845    1.258569   27.300455
H   19.012541   86.094421   78.592964
H   98.195366   79.758034   64.733810
H   27.428854   29.678146   33.367561
H   31.726528   68.317978   98.303123
H   25.066990   24.778698   31.733864
H   95.538834   16.736137   34.293125
H   75.369339   32.642235   55.305176
H   63.543472   42.145336   10.814603
H   78.006332   37.501972    9.045383
H   10.952064   25.202131    6.540587
H   49.891705   94.285355    0.940083
H   94.225426   68.500427   92.846252
H   53.533535   82.653542   89.476334
H   62.529747   14.977800   69.667572
H   57.009209   90.505020   19.584787
H    5.672323   99.800102   88.182472
H   24.146404   11.329315   86.569931
H   39.731037   37.086792   29.880760
H   26.647671   65.410179   73.407898
H   76.192596   50.766354   56.990063
H   42.694160   23.121700   80.802338
H    9.443748   22.623730   54.218266
H   37.178719   13.176568   30.110474
H    1.056942   59.941746    8.887931
H   70.782265    3.876363   86.033081
H   55.232800   67.961258   21.573227
H   90.291039   50.147110   63.137665
H   70.944611   89.177788   36.733952
H   94.990494   45.063148   80.218521
H   77.681450   23.177694   69.994080
H   56.884216   77.866058   11.245548
H   73.831390   88.084610   14.161389
H   91.768349   92.568527   98.900078
H   90.868568   18.259048   52.230457
H   14.553312   97.663406   46.996758
H   56.898064    1.363752   80.661469
H   69.232109   87.086906   65.543930
H   92.966927   57.820175   79.959274
H   51.671585   47.200493   71.501602
H   43.558990   99.257912   89.761307
H   60.766621   57.040127   21.531998
H   47.800964   47.239559   51.025772
H   48.415478   60.534203   92.469688
H   48.319542   19.107027   81.521492
H   49.937901   62.968254   55.771961
H   53.451366   65.507751   20.027996
H   49.579735   95.880043   45.814056
H   37.054794   65.787811   67.648827
H   70.665619   56.233219   95.906532
H   15.996676   90.912918   82.325386
H   68.994423   64.791473   49.796593
H   42.416882    1.437446   41.728092
H   85.699104   24.173298   96.268166
H   15.329045    5.848215   70.886642
H   21.741562   59.292915   64.462204
H   69.587723   44.037212   60.367893
H   61.457104   67.031380   83.183151
H   48.960629   33.370750   14.526865
H    2.999355    0.961899   95.002380
H   61.381340   48.579407   86.108124
H   55.969631   76.080948   77.965256
H   33.979092   21.993937   33.768024
H   74.043587   25.632040   37.146812
H   18.799477   26.201942   62.427876
H   56.991333   29.044367   11.838815
H   15.445657   57.916527   61.181198
H   71.369827   94.251228   54.394913
H   23.811295   40.259632   56.489735
H   96.858490   27.503544   36.372868
H   35.828175    8.912697   88.094849
H   75.448669    8.071744   35.958870
H   39.081032   57.832798   58.087635
H   41.633839   68.645645   84.655899
H   68.701599   69.634430   78.995476
H   61.909821   93.494415   89.592331
H    7.236621   48.768181   23.483421
H   33.311783   59.325054   95.483521
H    3.546862    9.396362   67.501511
H   70.358955   16.613977   66.737190
H   76.548828   56.654121   89.276886
H   77.675102   92.535645   36.952930
H   23.362560   30.356289   77.100029
H   56.196930   89.952553   10.127892
H   55.945148   25.599762   84.732018
H   88.173988   79.442894   77.552261
H    3.552033   37.953583   84.980202
H   38.490204    1.013077    3.807447
H   80.572380   75.908028   32.699596
H    0.681726   62.087578   68.886322
H   53.341427   57.158161   68.293045
H   57.613419   24.241947   77.837532
H   45.972370   90.500259   22.013247
H    8.654020   22.401049   62.502201
H   31.521999   71.712547   37.444656
H   77.859619   45.098747   21.145708
H   75.828629   10.886476   26.757772
H   10.823937   91.149239   10.386029
H   22.951725   93.331894   41.185291
H    9.179588   12.185501   68.848747
H    5.869615   28.047461   94.900703
