100
TIME:    2.073, STEP:  2073
H   77.133942   31.916580   97.248123
H   43.606010   17.139139    8.764309
H   15.387831   23.043716   99.000969
H   81.824554   47.243065   26.534588
H   76.603378   38.917606    9.497620
H   95.871468   98.962257   84.042046
H   44.324055    1.315515   52.564156
H   56.952583   67.941864   17.857559
H    2.669675   86.982819   69.600197
H   18.190580   46.148567   88.865776
H    7.429611   49.654087   40.067616
H   76.720718   27.599245   45.370293
H   11.399331   36.288124   19.089859
H   52.438606   98.686287   14.995785
H    5.714920   84.858704   51.126083
H   18.173981   30.417061   60.964615
H   57.401352   19.087807   62.094719
H   45.443657   93.890495   27.679012
H   77.550850   65.320374   72.575089
H   36.667854   61.788990   57.472115
H   41.261871   49.844250    0.979970
H   61.120609   46.836060   42.743065
H   58.066490   77.762642   73.039062
H   26.437386   61.544102   53.115959
H   55.441277   21.766495   51.856911
H   37.153728   65.837555   94.870110
H   83.321983   56.306583   41.102749
H   57.627396   53.200344   35.293781
H   56.246246   37.170448   59.180290
H   80.481682   39.533401   48.185879
H   97.647682    7.941919   45.374569
H   96.647797   95.238991    7.356048
H   16.376637   16.811745   84.549164
H   65.690407   83.744736   84.419312
H   29.243740    2.217128   50.958702
H   52.794048   47.329548   13.513547
H   78.626282   28.619131   71.809631
H   78.309486   21.012302   68.726219
H   57.572716   36.248352   43.422844
H   67.939140   18.115683    1.133067
H   93.575172   27.313334   91.183517
H   45.311768    4.893969    0.193227
H   29.096800   75.931107   51.207703
H   46.983818   47.514709   83.420700
H   76.837593   50.099476   33.502861
H   51.342991    2.456074   91.587776
H   57.924053   37.575043   45.354248
H   56.350124   16.726835   96.843452
H   25.626272   60.762470   61.783463
H   69.365288   62.301785   38.675945
H   43.386463   69.508705   75.274231
H    5.877268   71.380905   37.973675
H   51.881798   34.028687   82.473534
H   28.687321   73.385826   23.291861
H   75.729202   40.235279   17.996595
H   96.160019   10.353325   22.056992
H   27.671114   29.731682   53.147026
H   71.697113   81.118164   60.160110
H   53.769081   26.358343   52.338638
H   22.222530   87.125381    4.649283
H   90.466782   82.167427   52.767544
H   25.337051    8.648655    1.556427
H   14.842718   65.790245   91.342209
H   85.388794   53.071098   70.861046
H   14.602260   95.276642   88.615707
H   73.997627   39.217995   68.757286
H   21.248037   20.032335   67.146744
H   37.169594   36.094849   65.303986
H   60.221977    0.833773   30.217484
H   72.380920   52.409935   97.367981
H   56.205559   54.352974   37.285069
H    3.039346   82.726151    8.396624
H   71.828079   15.768040    8.593060
H   84.569237   18.195642   80.004005
H   62.117508   31.593332   58.545513
H   74.667152   40.432610   56.442013
H   55.170586   46.873474   27.711313
H   29.373638   15.171850   28.923893
H   60.918877   47.429539   40.806160
H   97.861427   96.053665   42.330330
H   51.449100   50.727795    3.887458
H   96.862061   57.765823   13.434408
H   48.961613   41.857513   27.342777
H   92.773384   89.550880   74.084229
H   51.391830   19.216293   46.798294
H    3.578190   85.199791   85.738579
H    5.605719   52.628937   22.392073
H   89.326370   39.325058   74.190529
H   98.702095   78.751045   11.239838
H   83.057602   23.986092   98.323601
H    8.858368   85.367371   77.239700
H   31.668776   51.414059   73.020699
H   18.291607   89.746872   79.287949
H   47.591610   38.975468   66.589073
H   20.750710   64.043976   63.721947
H   65.142883   13.871088   60.375809
H   98.057724   86.645836   17.969406
H   14.476487   33.888031   22.867290
H    9.960348   45.786182   71.404465
H   67.981644   25.456085   98.025909
