100
TIME:    0.051, STEP:    51
H   13.873683   17.344238   99.099319
H   99.851524    7.509890   81.217590
H   80.640686   77.573036   22.741043
H   81.485168   30.549723   37.367798
H   94.714249   76.845398   64.322487
H   27.225491    1.158144   83.796318
H   50.296741   64.782784   94.440750
H   15.877798   93.014526    3.510746
H   52.374321   81.389893   96.876244
H   73.446861   17.119595    9.685701
H   95.511139   68.294617   34.837097
H   53.895481   26.246849   89.299171
H   40.018158   58.621826   20.060162
H   52.556858    4.920022   61.122353
H   81.123375   65.465530   48.321674
H   99.471252    7.277599   28.806843
H   19.965612   85.369820   77.998177
H    2.234662   92.220383   97.778122
H   46.058449   80.493271   66.047897
H   91.268867    4.463064   19.667337
H   61.250137   51.140793   55.856865
H   67.238014   44.167252   14.912785
H   85.063103   94.207436   30.892002
H   14.303120   37.293430    3.286470
H   27.758581   82.128105   36.934830
H   46.419712   26.095242   84.389977
H   57.681789   40.357372    0.978408
H   28.237244   58.819683   68.462082
H   12.280007   53.718960   54.761292
H    2.949655   89.577408   87.443260
H   18.107943   26.615656    5.376304
H   68.977539   51.100983   94.542778
H   73.950989   64.750816    2.391438
H   80.256981   69.048859   69.602882
H   79.504143   55.064987   27.834198
H   76.989342   88.492241   20.468847
H   84.691978    2.665973   12.482824
H   61.880302   58.020802   26.040529
H   48.428432   79.419289   37.238792
H   58.389027    7.408371   42.046753
H   31.756283   57.928921   43.539440
H   27.037582   14.145374    5.196458
H   11.681085   63.805767    5.157399
H   76.102966   13.626573   85.717911
H   52.230988   29.879723   60.471550
H   77.300087   64.162895   83.518288
H   36.618580   28.491680   28.059027
H   56.242138   95.906921   71.733536
H   66.517876   28.225361   42.440117
H   26.959417   31.525646   80.097672
H   43.534878   64.721321   53.964771
H    7.611966   59.007294   70.714828
H    9.937334   22.304443   99.907417
H   75.503372    6.370221   34.066181
H   36.699661   62.976704    0.838946
H   93.630051   12.478825   90.890640
H   99.485847   88.075218   60.837975
H   22.262487   72.070168   12.241348
H   94.299858   40.923935    7.567763
H   55.657860   31.707853   62.148880
H   62.917892   76.198349   10.420003
H   97.101044   27.470657   93.046432
H   77.692863    3.675353   30.059296
H   46.541710   42.071907   25.756254
H   34.345657   56.771725    0.310338
H   98.212502   39.737812   49.201382
H   83.476555   50.124767   69.524582
H   76.842796   20.453987   68.640694
H   59.445770   46.121788   57.035023
H   31.419933   50.709557    1.623520
H   20.413446   91.934181   61.535740
H   69.761009   49.832939   60.356655
H    3.666059   15.784466   60.441982
H   29.068413   46.152851    0.177531
H   64.628952   28.716265    5.263831
H   26.863455   10.840784   92.498276
H   71.586151   22.123829   91.934143
H   34.376404   47.385288   17.256523
H   63.999214   53.350315   18.257122
H   97.024307    6.176208   16.527338
H   11.880182   29.808470   83.036911
H   45.150837   44.560623   82.515930
H   21.022873    8.108594   34.757263
H   53.678940   16.525730   58.771919
H   49.847893   45.695663   42.808327
H   50.125614   10.921683   45.326725
H   70.560890   99.644798   25.975079
H   56.776169    1.210984   95.207848
H   56.741646   91.332954   27.783794
H   61.825691    7.188725   26.035025
H   26.109713   76.184555   34.538769
H   82.060112   99.342476   34.496780
H   88.556541   29.159559   22.860228
H   52.157761   16.325716   30.257725
H   55.709949   45.161823   17.259369
H   98.133942   93.717705   64.814690
H   58.554131   70.607185   34.255821
H    7.052665   16.671906   55.219124
H    6.282484   37.070133   40.779552
H   42.408794   77.392616   92.773788
