100
TIME:    5.770, STEP:  5770
H   27.120554   92.883842   93.863419
H   41.121162   17.530912   41.922657
H   78.942291   89.021271   55.614887
H   82.445084   94.925446   23.889153
H   43.489685   35.248367    9.257349
H   38.544613   94.957024   50.169186
H   50.563671   50.956539   41.674595
H   66.375671   87.780380   78.411980
H   11.790321   31.531509   36.885864
H   17.162333   99.232018   33.636570
H   63.543686   98.411240   83.953667
H   35.616508   12.910736   82.214409
H   75.871262   12.666969   51.685478
H   69.384987   87.291115   96.338829
H   50.683144   54.627701   73.414886
H   69.524567    7.063724   54.080780
H   60.118050   63.609943   98.654205
H   24.455511   14.070015   99.508339
H   35.137402   20.411249   67.346527
H   37.062737   83.280312    9.180994
H   21.876732   81.795715    0.637042
H   15.555862   51.743744   27.909454
H    8.705173   47.695183   67.263840
H   82.942070    5.854220   78.543381
H   23.215691   28.569908   79.152626
H   20.243406   56.084961   47.832458
H   64.526428    2.623936   14.451365
H   45.685658   25.763786   57.500496
H   36.634300   72.591583   84.421600
H   22.240494   48.032341   42.086685
H   43.141563   39.462589   52.874901
H   30.078434   93.094177   65.106255
H   76.788811   46.321358   17.604124
H   21.897961   44.936607   28.669546
H   37.345505   22.752020   76.080322
H   74.213928   37.360237    1.285626
H   33.217361   93.224731   63.118755
H   25.508274   53.361813   29.614475
H    1.517256   55.697990   85.156654
H   19.724276   72.015862   92.005943
H   40.912613   54.163849   78.284401
H   13.949946   64.230194   74.527092
H   60.941227   98.100922   18.247536
H   10.910473    9.492208   44.895737
H   56.150204    4.238650   49.865093
H    3.644464   72.970749    6.602446
H   86.812790   38.630753   80.852043
H   56.547565   54.799103   25.592794
H   33.692612   54.577591   14.305797
H   46.892071   18.554441   80.102463
H   43.105396   12.587107   14.252172
H   85.544106   28.326229   95.271339
H   28.559116   55.465149   67.757774
H   43.070641   13.058198   86.431114
H   81.378746   64.261215   49.425404
H    0.782267    6.464243   96.202377
H   62.043320   23.056084    4.762417
H   96.409821   31.982733   64.933456
H   45.343849   82.565483   68.518120
H   78.257828   71.290298   99.498070
H   23.676792   10.240818   64.520073
H   94.129341   74.235733   34.280113
H   65.787041   13.548399   37.804230
H   39.255173   73.194763   70.486572
H   61.345924    0.003349   32.904438
H   46.885674   55.429253   87.350761
H   24.630844   47.845272   45.638321
H   81.792305   47.530125   42.041965
H   44.478924   35.190926   98.347351
H   47.283844   38.356392   89.583160
H   38.809837    2.809811   92.932564
H   98.204727   60.029907   79.074783
H   30.777058   32.898270   13.803902
H    3.191431   84.235435   60.319603
H   40.365917   36.866741   38.803604
H   62.067924   77.376396    7.682229
H   90.833488   26.440489   93.093452
H    3.065424   73.435173   33.095345
H   38.205021   36.570415   82.058891
H   16.558823   94.699989   23.830395
H   23.781931   88.974960   24.848177
H   74.265732   81.890106    4.280104
H   82.840355    3.613881   79.449509
H   47.116119    5.910217   36.416523
H   71.377953   87.967964   88.415680
H   18.493153   20.995049   42.469604
H   52.519981   83.826775   98.679291
H   48.826469   43.352581   35.751831
H   75.426865   72.907951   80.999641
H   56.193874   71.883713   30.481482
H   60.154839   84.994751   55.313641
H    5.220468   29.438105   43.467262
H   55.321564    0.646585   65.207535
H    4.916330   63.232372   15.861152
H   56.832039   32.888271   48.674046
H   70.499924   67.880646   69.420883
H    4.607206   98.809364    5.351163
H   27.139894   71.956802   63.046410
H   33.843445   61.722500   61.740189
H   97.608856   30.567661   41.898563
