100
TIME:    8.377, STEP:  8377
H   50.819572   53.810234   91.476639
H   69.124191   58.802891    6.301239
H   23.763865   76.579041   25.006710
H   82.882660   87.517387   80.991280
H   20.133970   44.210743   38.569595
H   98.111450   92.132668    8.348033
H   13.932044   26.992929   45.545475
H   61.470612   13.319425   39.045692
H   47.705223   80.878220   72.785828
H   45.954353   36.666309   35.714149
H   21.046890    3.309495   32.834763
H   36.114906   43.586208   96.645531
H    9.576216   54.936813   92.624023
H   40.301857   79.255623   94.732796
H   82.353035   21.757889   48.050171
H   64.702255   79.045860   37.677032
H   50.478554   36.044003   35.979713
H   80.200928   87.214272    9.138882
H   75.738297   29.778706    4.695919
H   66.822342   27.919252   86.677742
H   67.173668   22.260288   29.878412
H   65.491493   55.204575    5.899331
H   73.897179   26.495207   92.673767
H   40.713860   37.041473   84.925262
H   29.974041   21.822021   98.405983
H    8.109114   79.149521    2.568777
H   39.720871   94.254410   66.183823
H   25.715055   47.449741   43.672058
H   93.320320    9.119192   61.186638
H   22.204350   83.508499   49.335815
H   45.743862   73.236870   46.617500
H   94.686302   21.065067   23.763191
H   60.422604   55.581017   52.463272
H   32.050934    6.020672   18.841539
H   72.475273   25.413536   34.715916
H    0.836362   41.553001   93.090370
H   83.262077   97.750252   68.540184
H   17.755871    5.647186   13.583533
H   91.475487   98.898216   32.518410
H   74.173065   27.956381   97.119202
H   62.742859   43.616608   39.702969
H   94.245865   74.453568    7.621869
H   83.379669   13.738939    6.553509
H   44.443737   53.252419   99.794342
H   30.013409    1.381152   72.953667
H   69.992119   22.691113   17.193781
H    7.184397   80.407600    5.877131
H   56.698910   81.650375   86.898857
H    9.900200   38.666710   10.311281
H    1.616986   58.236736   97.812157
H   42.926388   60.898277   41.733810
H   12.250698   86.415573   24.138763
H   82.632713   70.581421   16.349016
H   82.699310   70.529144    1.471027
H   73.805580   92.724869   71.595749
H    4.029303    3.721932    7.453949
H   27.317528   47.831749   52.709892
H    2.287473   85.782738   97.781761
H   50.951672   92.726204   68.384720
H    6.224120   71.673004   25.348778
H   88.127884   89.002197   61.258030
H    1.601815   49.970139   16.321453
H   42.775341   35.652008   59.034424
H   18.272968   87.396103   99.701416
H   64.822754   91.786743   75.682343
H   86.736671   25.827721   41.497974
H   15.466040   37.976902   71.503586
H    1.708934   96.626335   66.671646
H   74.411591   47.868538   34.842064
H    0.157253   69.397903   84.076126
H   56.023357   25.429546   61.665749
H   83.441544   73.450584   70.075790
H   60.795166    3.951492   46.964832
H   45.796726   19.239918    5.421191
H   65.999649   40.649899   36.451328
H   23.693850   44.460312   32.263893
H   27.593395    0.748963   39.309441
H   25.544455    2.972820   77.074219
H   63.218864   28.912830   11.143578
H   88.709770   52.684776   99.235283
H   74.808891   15.946267   80.664780
H   69.898697   98.796600   86.184105
H   47.738770   47.211216   27.726170
H   26.473953   28.997522   98.308434
H   44.440338   24.889317   35.696724
H   58.497791   16.754230   23.507675
H   26.635744   94.276009   22.990990
H   90.754234   34.738052    8.721550
H   29.532265   27.753931   59.677742
H   25.699205   64.625870   23.675062
H   66.844048   25.764988   10.369040
H   98.112068   25.509651   93.143837
H   22.435200   78.869469   66.810852
H   56.869598   21.395741   91.647072
H   11.757214   99.368179    8.581497
H   85.827423   64.933350   34.766136
H   97.675835   48.417488   55.419838
H   22.107767    0.954634   10.712217
H    9.652072   72.976112   43.376316
H   59.537624   63.663204   90.756897
