100
TIME:    2.270, STEP:  2270
H   63.811432   13.850677   97.067764
H   38.126106   27.820143   21.190817
H   18.774069   37.216446   96.689369
H   81.857620   39.126915   15.736341
H   74.838867   54.708027    4.156366
H   92.817390   98.748833    3.551062
H   34.000011   14.618202   67.969810
H   41.468773   84.985779   99.769417
H   97.827003   68.042130   57.199696
H   12.807619   48.977196   96.579124
H   89.105164   57.580860   21.091925
H   69.202759   37.473892   31.347425
H   98.868309   24.369408   99.509880
H   42.684196   98.079079   29.988117
H    8.111259   67.261688   41.655739
H   10.252468   13.186713   44.612076
H   41.562836   32.115730   80.031250
H   49.653534   84.310432   20.848671
H   80.619957   73.583817   82.954742
H   31.360794   57.606167   70.884804
H   29.571609   30.231724   95.632477
H   80.007462   47.097443   25.966782
H   55.436256   76.160454   67.402847
H    8.133965   63.906803   38.484344
H   48.395256    6.142906   53.310303
H   36.250431   59.967907   76.404366
H   66.335182   48.116787   45.012028
H   41.005821   62.395641   41.806149
H   60.529770   55.044014   49.867760
H   88.035713   34.657700   63.847042
H    5.397746   25.608824   29.786945
H    9.086367   89.795158   89.118813
H   30.252998    2.398742    2.296482
H   74.013969   65.690811   76.119797
H   24.346245   87.325439   62.954071
H   69.922134   62.805843   12.836450
H   97.521881   21.404024   87.332520
H   70.166283   17.406628   82.628883
H   49.256668   31.955820   24.332159
H   49.384403   99.672920   16.632662
H   80.111382   34.072803   95.824753
H   27.606537   13.735753    9.448147
H   30.793676   77.112457   65.436668
H   34.403786   50.816780    2.682926
H   59.748966   42.327511   50.361305
H   48.801434    6.213551   92.387367
H   59.464619   48.288361   47.246513
H   56.360645   18.755121    9.032616
H   31.384230   44.447506   53.924324
H   73.495506   65.299599   24.898029
H   43.371433   50.489861   77.351364
H   15.450567   53.100636   25.040440
H   55.968430   35.170959   71.032768
H   24.125744   70.172432   31.984407
H   60.046616   57.506145   19.667921
H   96.406509   10.146288   15.350647
H   40.159466   24.047371   71.883308
H   57.027924   62.514145   55.086014
H   69.306007   34.682415   37.214043
H    9.222967    2.266730   99.046394
H    2.893602   73.005196   37.408482
H   18.345890    6.814631   92.643463
H   28.205090   52.356514   77.827316
H   98.915710   54.142731   65.513405
H   22.421570   79.543335    6.961495
H   61.895546   29.424507   80.405464
H    5.441835   26.843138   76.657669
H   23.561516   47.361267   74.721725
H   70.040092   86.678612   17.861397
H   76.372864   62.319153   96.953156
H   49.950111   40.949196   34.921001
H   86.795227   76.188141   22.820074
H   58.983521    6.024151    3.541516
H   80.234612    5.728810   68.295708
H   71.616112   31.873640   73.479233
H   79.323418   53.059235   43.187138
H   73.056915   29.798094   31.195997
H   38.629055    2.290397   39.804043
H   70.365936   46.851025   43.004929
H   88.200203   85.325317   25.358559
H   55.304272   52.765850   15.661510
H   11.643360   59.052383   96.961037
H   61.425915   45.146057   46.106113
H    6.324955    6.408419   56.090424
H   41.799744    6.893551   27.701294
H   99.044128   92.435188   99.418800
H   18.762899   38.305435   31.785765
H   92.497681   23.552673   72.140450
H    2.790618   67.782219    9.628256
H   65.640945   15.880463    5.365850
H   16.920410   96.005539   81.399979
H   46.246265   66.228813   76.775169
H   30.931007   95.650620   94.528275
H   66.632790   50.925747   79.872505
H   17.344181   46.397362   68.248955
H   81.414261    6.091984   50.200562
H   82.420609   97.951332    6.639574
H   15.199801   35.565369   19.714767
H    0.576050   46.635372   54.902458
H   80.215988   20.396267   79.052155
