100
TIME:    1.023, STEP:  1023
H   48.140785   28.206917   98.209427
H   72.813622   60.212063   42.530727
H   97.341003   47.502468   11.328171
H   81.648315   90.501732   84.089470
H   86.008133   54.755486   37.966835
H   12.152935    0.100260   80.057030
H   99.355827   30.415449   70.452705
H   39.480515   77.104019   14.265028
H   28.480705   87.936035   35.692696
H   46.883568   31.072369   47.750854
H    5.098053    7.405182   41.208878
H   16.794376   74.968468   20.110662
H   78.188705   99.814278   23.451292
H    4.428947    1.923129   35.091045
H   92.944115   78.646057    1.596761
H   60.391708   22.257534   48.122543
H   41.818855   49.649612   66.496971
H   23.005226   44.952255   64.080856
H   61.194038   21.268869   17.258829
H   64.957710   84.083710   85.979164
H    3.570335   54.375206   29.478611
H   60.439747   45.450180   32.148823
H   72.085503   86.302223    3.080013
H   23.993774   48.951023   31.097694
H   92.996208    5.042904   44.110405
H   41.968258   97.127991   93.287415
H   73.865036   99.951187   20.266493
H   46.222885    4.189471    0.587259
H   33.415283   41.906284    8.815044
H   40.219082   65.520645   64.714134
H   56.343662   13.781130   28.460155
H   30.349890   24.248474    4.559843
H   42.416683   93.635139   89.956871
H   21.326241   79.970924   28.653296
H   55.343559   81.589119   87.022354
H   61.500854   64.846573   17.124334
H   77.917595   67.071632   89.073799
H   21.709068   40.230366   94.632317
H    4.729198   58.669960   44.077576
H   66.837364   16.413160   18.521219
H   65.329346   91.283714   66.445969
H   39.679771   57.772278   50.862339
H   20.052534   69.634567   75.364876
H   14.034033   29.915316   80.757210
H   67.916878   91.528976   43.649628
H   64.886086   82.435371   87.329994
H   46.882008   80.926208   36.364693
H   56.294048    5.916173   31.875349
H   94.935112   47.723778    3.665172
H   47.345371   46.320110   12.115540
H   43.466572   70.879433   64.203217
H   54.848518   68.813065    6.902909
H   30.100260   27.940430   43.455864
H   53.000294   90.513054   76.959000
H   59.319893   48.186886    9.086960
H   94.846237   11.456821   57.801468
H   61.104034   60.028770   53.283287
H   49.883728   80.277809   87.204788
H   70.957939   81.992477   32.946804
H   91.511673    6.418219   34.513023
H   24.232481   30.997223   34.634468
H   62.602875   18.423416   49.068390
H   43.622620   37.393028   63.376320
H   13.286417   47.359352   99.363701
H   72.928200   79.139244   90.831169
H   38.500710   91.416786    6.673395
H    5.491041   83.729980   16.452763
H    9.700227   76.043381   15.107917
H    7.887310   76.280075   96.070900
H   51.108917   99.596336   99.578979
H   89.546776   25.796396   49.878147
H   89.616165   17.574333   31.520494
H   40.290710   67.703041   35.517574
H    7.674634   84.642441   42.408669
H   11.495414   30.099306   78.948051
H   49.844929   73.138329   27.095078
H   59.837597   37.879753    9.135698
H   80.042725   83.829674   70.937714
H   10.586618   50.505711   29.095272
H   49.355728   53.240456   32.788727
H   30.901234   39.865063   41.130505
H   18.079266   50.908524    1.234414
H   82.524757   24.331495   27.335453
H   20.542616   99.701027   69.990303
H    2.517290   84.894821   48.584038
H   27.746784   46.631886   12.823605
H   35.478584   28.972496   72.323654
H   72.423447   23.390327   85.107567
H   76.912544   37.212654   19.830379
H   75.890366   67.189270   60.784695
H   65.887917   28.671232   55.065624
H   53.978596   72.445534   53.013962
H   50.921303   58.281654   98.056602
H   46.105072   75.286110   95.794594
H   38.905811   58.096390   39.593224
H   78.417175   55.333672   14.609865
H   81.401596   26.388121   78.355301
H   10.621259   24.947906   39.668251
H   59.978661   41.260044   59.358433
H    2.773199   52.427692   99.156075
