100
TIME:    1.435, STEP:  1435
H   20.279142   90.424576   97.832230
H   61.353111   82.548958   68.519615
H    4.421126   77.143883    6.490493
H   81.717468   73.527855   61.507580
H   82.317886   87.779106   26.795509
H    5.764019   99.653450   20.858305
H   77.761284   58.236889    2.671665
H    7.098129   12.748253   76.437538
H   18.352959   48.324036    9.758399
H   35.624229   36.987831   63.885468
H   66.774826   23.982609    1.523386
H    1.068425   95.620018   90.784569
H   51.981224   74.887825   82.501396
H   84.029030    0.652937   66.445320
H   97.954552   41.846073   81.793716
H   43.826462   86.220695   13.923373
H    8.695581   76.895828    4.009139
H   31.809639   24.916794   49.797653
H   67.611305   38.553932   38.963390
H   53.855186   75.339462   14.034067
H   79.121704   13.358147   18.296284
H   99.944878   45.993973   97.066872
H   66.584709   82.951454   91.292389
H   85.714455   53.892307    0.497891
H   78.260368   72.365517   47.149986
H   40.079128   84.850220   54.669464
H   38.337067   82.826431   28.442244
H   11.461014   23.420650   14.205485
H   42.373718   79.286530   89.339653
H   56.017361   55.323746   97.467430
H   72.550575   50.728378   95.859039
H   56.363926   12.866330   66.418938
H   71.438065   63.490791   27.073088
H   38.733894   42.213478   11.297293
H   45.102654   50.445198   12.110756
H   97.322021   97.210098   15.706538
H   17.434525   51.983742   21.537542
H    4.681232   32.689564   23.705708
H   86.208267   49.874977    4.588359
H   28.032804   77.843742   50.937527
H   37.174568    5.421583   76.152512
H    2.651566   76.262291   70.218842
H   23.601332   72.105209    5.125401
H   87.725243   36.820694   21.041056
H   32.180237   75.271774   78.906815
H   59.574024   90.287209   88.998238
H   51.232349    3.149801   39.885201
H   56.316051   10.158072   57.367596
H    6.978640   13.603142   87.231461
H   55.986332   52.591015   83.298912
H   43.435139   31.103945   68.547272
H   74.871407   30.581430   79.857132
H   38.646919   30.329346   19.526661
H   43.460346   83.792656   95.139908
H   26.519447   84.304901   12.583107
H   95.361740   11.023830   43.776016
H   87.224594   48.140770   92.467796
H   19.204361   41.369911   76.592972
H    3.453175   99.400131    1.317196
H   64.322037   38.087070   22.794762
H   50.221844   11.838574    2.512648
H   47.980194   14.588287   30.425415
H   71.568939    9.296848   35.111671
H   41.578316   49.600533   88.179802
H   89.279701   46.233372   29.199614
H   13.190861   70.934975   31.033751
H   72.435745   97.975464   36.344860
H   81.240425   99.605637   34.803898
H   28.422249   46.676376   70.232887
H   59.454407   20.319040   98.711426
H   76.464317   97.762901   44.936863
H   55.644039    3.900236   61.686821
H   13.426891   47.324390   24.952908
H   98.607262   58.571167   17.922279
H   31.359386   30.685534   10.180401
H   59.586048   99.542137   99.372978
H   97.243340    2.170485   16.425776
H   99.399231   56.890671   93.688995
H   30.336039   49.298679   33.689796
H   29.150528   30.800447   97.294746
H   38.963825   44.127392   65.755196
H   48.993015   53.599197   66.783646
H    8.594741   31.207487   66.576538
H   48.885845   34.956402   32.358589
H   82.456558   59.125366    8.645279
H   18.263416   61.766926   41.434105
H   62.995125   99.016724   91.969345
H   79.055832   90.405167   80.826378
H   85.462349   14.273929   16.459179
H   39.465164   50.236809   75.514244
H   82.748634   50.916676   63.766308
H   84.462425    3.432122   60.862808
H   77.356544   70.627121   29.930853
H   85.925941    0.275447   23.573734
H   31.783020   21.190781   49.060875
H   12.446747   39.063896   93.329147
H   48.698593   50.032101   54.661026
H   12.133977   28.455841   33.076729
H   40.351830   43.036015   24.848026
H   28.359756   41.844166   59.474922
