100
TIME:    7.984, STEP:  7984
H   77.396965   89.850426   91.836441
H   79.978226   37.505596   81.522415
H   17.008577   48.304581   29.619675
H   82.816696    3.708836    2.531683
H   23.655535   12.710057   49.225739
H    4.205686   92.558434   69.429085
H   34.528965    0.454541   14.812366
H   92.359634   79.319054   75.129936
H   57.365913   18.663944   97.522232
H   56.688454   31.023409   20.325470
H   57.602798   87.496292   70.689484
H   51.115662   23.887035   24.618935
H   34.636635   78.724594   31.679281
H   59.761162   80.466957   64.827232
H   77.579659   56.862595   66.949249
H   80.503571   13.419254   70.299103
H   82.081184   10.051117    0.203370
H   71.799545    6.337627   22.761517
H   69.615662   13.290769   83.989929
H   77.412521   36.264400   59.920448
H   90.494850   61.385784   40.543850
H   27.814196   54.682861   39.366913
H   79.144295   29.689951    3.917853
H   77.229706   32.340057   14.112214
H   44.030098   52.989891   95.503578
H    9.962154   90.735153   39.552498
H   73.610397   10.590745   58.385952
H   58.874115   29.105825   30.680349
H   84.775017   73.462997   79.764427
H    7.135691   93.235153   18.093655
H   30.275530   37.996452   77.710411
H   69.871941   31.922100   60.145195
H   32.738819   84.335213   17.058729
H   15.444591   42.036690   35.397247
H   82.255898   55.169182   10.804222
H   66.673172   10.769956   94.325691
H   45.568264   12.143560   37.573208
H   33.999260   12.839483   85.850136
H    8.063611    7.460222   70.603477
H   11.190243   64.748932   66.200195
H   89.602097   30.133017   30.444059
H   27.366020   72.912415   87.557579
H   79.997528   11.381485   78.165627
H   69.537125   46.653465   61.367664
H   64.101845   16.885685   39.322784
H   75.065331   15.196731   15.597158
H    4.112169   59.035347    2.102875
H   56.674923   77.602600   62.582226
H   98.412849   71.214485   25.988438
H   93.365967   52.255024   25.290764
H   42.953373   98.839424   37.590088
H   93.150558   22.882536   49.937042
H   74.483192   68.302673   39.173500
H   91.802307   76.939621   84.128677
H    5.096570   58.285301   68.255585
H    3.539821    4.135330   20.832596
H    2.403823   59.171516   15.332421
H   31.550241   22.897192    7.904853
H   19.955292   76.121330   98.554138
H   32.157150   41.465366   36.526634
H   63.337505    7.279259   91.900917
H   15.550179   53.628128   34.103355
H   16.093899   62.469269   85.983612
H   91.286674   85.255280   10.372012
H   49.222488   23.175169   39.084457
H   10.878754   45.364983   18.260746
H   46.997498   24.390530   52.530010
H   28.856407   74.150688   47.883972
H   54.824951   76.107018   59.491516
H   92.175636   49.658932   84.909668
H   68.504417   52.171082   66.379158
H   15.804677   86.499413   41.269993
H   86.419083   23.391230   57.042294
H   54.446972   44.112019   28.770899
H   47.068054   40.071217    6.653942
H   14.402085   19.271915   58.706360
H   91.900108   34.765190   32.338272
H    7.082444   28.668697   55.367344
H   44.374222   30.067196    6.757738
H    7.982744   74.093010   33.092384
H   67.115120   11.880502   57.175690
H   40.409302   96.248001   19.063087
H   22.879984   40.638828   90.298599
H   99.436287   95.367065   34.202099
H   63.575821   49.472805   73.793785
H   67.542648    2.318663   96.216263
H    0.388087   22.850639    4.251215
H   84.433708   66.187561   12.796310
H   21.375248   49.635612   62.891975
H   60.446835   80.792984    9.626623
H   50.760883    4.545246    2.069334
H   69.034050   95.952866   85.653954
H   97.243408   67.079948   36.419556
H   18.888956   97.552940   65.147636
H   18.552979   34.571693   99.551178
H   53.367264   80.452820   55.064980
H   28.869680   25.864292   78.021416
H   22.866350   81.507408   18.602381
H   28.373528   71.279045   76.294106
H   35.128040   73.749557   28.616062
