100
TIME:    8.279, STEP:  8279
H   57.447014   62.797356   91.566360
H   71.830795   53.492115    0.121968
H   22.079340   69.528412   26.157017
H   82.866211   91.554863   86.362617
H   21.012121   36.355610   41.226852
H   99.630737   92.238838   98.642799
H   19.068161   20.375208   37.881748
H   69.173218    4.841321   48.044029
H   50.114250   90.300491   78.954193
H   48.631050   35.259174   31.877041
H   30.162613   99.366333   42.274231
H   39.855553   38.673946    3.621237
H   15.825518   60.868164    2.363208
H   45.154305   79.557686   87.275429
H   81.162727   30.511734   52.762802
H   68.642532   87.617271   45.811798
H   58.359108   29.562359   27.058386
H   78.105927   91.982979   12.535782
H   74.211533   25.667210   99.533066
H   69.463150   30.000422   80.005440
H   72.989128   32.016773   32.538212
H   56.096134   55.074478   14.244919
H   75.205620   27.291861   95.477570
H   49.819862   35.869110   92.203186
H   33.478951   29.594162   97.682228
H    8.571239   82.038559   11.791201
H   48.171906   98.327774   64.239853
H   33.983940   42.875431   40.432358
H   91.189430    0.227977   65.819267
H   18.446880   85.933975   41.544983
H   41.886578   64.448631   54.370949
H   88.498497   23.772419   32.835548
H   53.519268   62.751274   43.634659
H   27.909908   15.001646   22.969858
H   74.914207   32.833519   28.753164
H   92.317322   33.876564   93.398415
H   73.862236    1.339247   60.818142
H   21.806431    7.440685    6.668217
H   95.611656    1.033419   42.015450
H   83.403931   37.131004   89.409119
H   69.440582   40.254288   37.394131
H    2.504798   74.069260    2.618844
H   82.536285   13.151075   99.474983
H   50.701077   51.606773   90.212067
H   38.513878    5.247347   64.567680
H   71.257195   20.822285   16.795641
H    6.418263   75.078133    4.936002
H   56.692928   80.641006   80.835167
H    7.035804   46.782784   14.220716
H   99.559814   56.745113    4.664222
H   42.933117   70.359428   40.700516
H    7.487775   95.508865   30.572182
H   80.600517   70.013184   22.040735
H   84.969269   72.127686   97.146561
H   81.608376   84.137009   70.762833
H    3.907243    3.825019   10.790100
H   21.105049   50.659477   43.389305
H    9.584649   95.037529    0.305956
H   43.222149   88.585548   75.907883
H   12.690997   64.140869   28.136131
H   81.946060   93.560059   68.899055
H    5.080055   50.882309   20.755573
H   36.121731   42.339264   65.754578
H   11.543468   86.862259    2.362237
H   60.932732   99.613464   66.556152
H   92.756996   30.699608   35.703449
H   23.329023   34.589161   66.772263
H    8.478621   91.021721   61.986679
H   69.527740   54.910194   40.988747
H   98.166924   64.475174   84.283981
H   59.135952   32.097740   62.841103
H   91.512009   76.704491   62.892193
H   67.184845    8.799002   49.477787
H   47.953785   25.442303   11.243795
H   61.278793   40.505596   29.020880
H   21.376787   38.179047   38.857689
H   18.692631    9.231323   37.571083
H   20.940611    9.380444   71.661011
H   58.519691   29.200687   10.049908
H   93.515862   58.023216    7.677984
H   72.890343   14.932412   74.807449
H   62.544655   98.161072   94.383171
H   41.539749   45.572300   18.392872
H   19.731743   20.611162    7.259137
H   49.212036   31.019550   45.196754
H   60.753544   13.154521   16.702286
H   20.090548    1.401429   18.317986
H   89.178123   42.580475    9.737648
H   27.498199   33.210213   60.479256
H   34.363804   68.657364   20.171804
H   62.833485   20.473652    8.299460
H   90.861061   18.139389   91.276131
H   16.153187   75.929588   59.232361
H   47.398727   15.450185   85.039070
H   13.451832    8.146561    6.329670
H   77.733032   68.803345   39.827934
H    5.454567   42.793434   61.055855
H   22.296930   96.105263   12.679739
H   14.320403   72.552925   51.585102
H   53.450756   66.178299    0.197130
