100
TIME:    3.723, STEP:  3723
H   65.550934   80.603302   95.737503
H   97.707497    6.599148   12.845446
H   43.749725   41.751137   79.639854
H   82.101501   79.262199   36.092609
H   61.824478   71.172371   64.758759
H   70.291634   97.174690   47.447510
H   57.846516   12.731693   81.596382
H   27.265839   10.689340   66.361397
H   62.109489   28.342224   65.738762
H   73.101112   69.840126   53.480217
H   53.950638   16.045231   81.130943
H   13.742989   10.305311   27.921431
H    6.442959   36.460831   55.092476
H   70.739845   93.600533   40.562443
H   25.787106   37.473648   71.812447
H   51.831009   86.101799   23.999975
H   24.725746   28.218365   12.307730
H   80.698082   13.651298   70.473816
H    3.255597   34.538055   59.502773
H   92.215660   26.754248   69.811790
H   43.348618   85.580872   56.192429
H   19.307983   49.026321    2.230447
H   36.036613   64.343300   25.831360
H   73.134453   81.333221   30.570927
H   96.428986   90.906433   64.035011
H   29.586031   16.677027   40.213905
H   41.040447   87.716446   73.841652
H   18.406210   30.216751   89.833702
H   92.123474   86.871872   81.184395
H   43.749054   98.695091   79.356598
H   62.580891   55.903454   14.827034
H    0.829824   49.647408   54.607292
H   32.600216   96.090370   33.194199
H   35.407700   32.531929   14.907158
H   88.226898   77.489799   51.432053
H   96.260811   76.947113    7.835694
H   36.883278   68.191391    1.823257
H   10.114665   90.816704   85.163261
H   87.923309    0.301145   83.526100
H   12.528801   63.649445   30.951799
H   80.811340   83.928772   30.057966
H   97.019089   78.949173   77.711151
H   43.309216   85.825668   70.388939
H   41.619858   75.166565   44.748940
H   33.713230   85.000702   74.697815
H   30.055836   33.927326   98.284859
H   70.820602   27.307678   61.203171
H   56.438244   33.715652   98.936104
H   73.855392   24.110909   95.961304
H    3.959918   87.404106   23.273151
H   43.260578   10.211708   92.671539
H   86.063965   18.272331   29.653896
H   86.101799   43.595947   86.643532
H   90.478081   46.463409   96.102997
H   44.362778   84.861023   32.012035
H   98.224533    8.618048   65.887100
H   32.273777   82.120979   10.075769
H   48.833733   25.296375   17.659206
H   83.901848   96.073975   25.666039
H   13.339980   13.949667   57.719612
H   94.549965    5.436366   24.121746
H   66.778069   93.288925   26.900131
H   26.814375   53.232475   78.173180
H   98.690727   62.046700   26.060497
H   80.095467   63.495289   42.276188
H   72.635414   57.191444   66.316620
H   88.864914   77.075043   46.809185
H   23.192863   30.460180   44.183529
H   42.456650   82.275299   26.732258
H    5.814795   35.398491   93.893555
H    3.809563   42.087242   17.488110
H   66.987778   27.966171   29.201984
H   64.244965   34.151234   66.293205
H   48.255138   13.780197   81.946342
H   41.672001   33.946293   83.626381
H   13.669883   46.182533   45.418491
H    4.978825    3.861316   56.892384
H    6.893641    7.282237   20.046625
H   40.043602   42.583103   59.223030
H   16.942543    6.190655    0.181539
H   83.730911   67.797806    2.504268
H   20.665199   68.541580   75.462402
H   53.353245   69.401154   84.497314
H    6.287096   30.744518   23.378609
H   71.050018   16.008015   86.849396
H   65.610229   45.807068    0.319479
H   15.805487   32.660500    1.070235
H   15.884344    7.221905   57.024933
H   32.947617   86.881844   97.741463
H   37.175266   56.102982   57.303810
H   76.383087   74.461891   12.084756
H   53.759674   75.493706    4.466186
H   24.105350   39.225929    6.909817
H    7.069293   39.060188   77.840706
H   92.221001   16.245533    1.638371
H    1.426101   48.713692   75.151070
H   67.088135   81.336037   23.076258
H   20.532347   47.936798   96.463951
H   31.358147   52.898685   33.196724
H   70.459709   83.094765   39.091499
