100
TIME:    5.009, STEP:  5009
H   78.584389   62.670509   94.560135
H   62.138771   76.294876   93.938904
H   65.855637   34.270981   64.549919
H   82.317352   26.280102   65.604256
H   50.305893   74.250946   29.889336
H   50.348148   95.781471   74.804771
H   90.448723   99.568298   82.163330
H   26.188774   21.944401   48.284695
H   30.497154    4.698414   84.788399
H   37.956673   88.305183    3.835066
H   34.330048   67.790558   57.256550
H   64.663643   74.765999   36.382469
H   24.432358   58.686302   27.302490
H    7.065429   89.636726   38.427528
H   41.428429   22.603277    9.993555
H    0.122040   73.623550   17.250237
H   21.313271   13.277917   29.377378
H    8.182076   51.096088   25.887831
H   23.285282   88.486496   27.255823
H   57.563614   99.444130   57.368629
H   67.035561   57.556358   21.291767
H   42.598053   50.733505   92.715683
H   18.866661   53.884346   89.036224
H   53.650272   96.750458   35.060959
H   50.433136   88.920563   73.532448
H   23.712473   78.579330   19.394670
H   30.146841   34.258472   99.351295
H    9.897344   90.242905   32.343231
H   20.087288    3.547938   20.393890
H   93.061157   66.866905   81.589943
H   13.190255   71.221558   13.082802
H   82.028603   14.120193   35.555809
H   23.184158    2.000518   49.047234
H   89.743240   14.677670   60.729805
H   56.261353   80.278030   29.741371
H    8.061769   77.754890    3.678988
H   60.226463   21.095528    3.155012
H   56.959209   67.288963   75.912132
H   33.641148   72.279839   58.902878
H   91.401680   43.257652   32.131695
H   92.922485   28.054403   60.355572
H   81.440086   36.664284   38.125484
H   54.386288   93.537430   63.277977
H   59.500782   96.718689   70.488937
H   22.162405   34.261887   84.743919
H   13.464380   58.455830    3.509962
H   80.867477   97.243675   73.548134
H   56.506924   46.961044   78.506477
H   11.449944   17.604771   44.663597
H   30.931461    6.971533   33.328033
H   43.162464   86.056610    6.229773
H   48.560081   98.941208   45.231064
H   12.772983   51.052612   11.953623
H   60.691757   25.476822   52.849388
H   41.971283   97.568855   42.951748
H   99.833603    7.264741   22.108627
H   13.801455   45.014259   32.385124
H   53.074844    3.849140   84.534409
H   85.325935   50.411850   26.939003
H   28.476627   12.795880   21.142708
H   75.672089   45.629749   23.855133
H   21.136599   81.319016   68.714523
H   14.120927   65.477951   89.988281
H   86.998756   69.049301   91.144211
H   31.137548   60.784603   62.035465
H   93.635338   93.260948   42.354500
H   85.686768   21.537270    8.896320
H   34.359993    4.006779    5.661765
H    6.548863   89.871544   46.077560
H   31.868971    0.079595   91.185608
H   62.974281   54.587814    2.060076
H   60.951180   85.285873   23.356918
H   80.394943   70.539375   33.317764
H   19.941669   32.399670    5.536219
H    3.676158   35.781025   81.113983
H   44.075226   28.602247   58.886219
H   21.739336   92.399361   79.635216
H   67.312256   23.193771   91.067619
H    1.714039   38.805714   73.570564
H   53.874390   36.152508   89.391479
H    8.890312   81.102066   79.365318
H   17.156288   76.940140   67.928001
H   34.705338   90.887512    6.975017
H   94.761337   40.790329    5.922861
H    8.432103   35.569183   62.186028
H   36.009762   93.042931   89.623260
H    1.694508   39.157822   62.391983
H   36.582581    4.262295   43.651993
H   59.634628   15.279358   87.223640
H   23.475462    3.190094    3.278166
H   29.011620   43.902943   39.242718
H   48.914173   72.204041   28.969755
H    6.540071   77.817360    6.358234
H   31.366676   17.065134   64.548332
H   69.988365    1.053081   31.186600
H    7.644495   97.932343    8.727613
H   65.011467   55.136868   49.116913
H   25.251631   58.886322   75.879631
H   70.095917   58.442127   25.480629
H   50.338329   50.093349   15.207387
