100
TIME:    8.463, STEP:  8463
H   45.003654   45.923576   91.397903
H   66.749008   63.463367   11.723834
H   25.242121   82.766327   23.997257
H   82.897095   83.974297   76.277657
H   19.363348   51.104023   36.237717
H   96.778198   92.039497   16.864902
H    9.424937   32.800316   52.270786
H   54.711182   20.759317   31.149193
H   45.591179   72.609695   67.372772
H   43.605415   37.901142   39.081398
H   13.047379    6.769823   24.550852
H   32.832298   47.896969   90.523857
H    4.092193   49.731750   84.077301
H   36.043587   78.990547    1.277134
H   83.397591   14.075943   43.914597
H   61.244461   71.524010   30.538292
H   43.562965   41.731976   43.808632
H   82.039398   83.029488    6.157877
H   77.078110   33.386753    9.226542
H   64.504898   26.092920   92.533028
H   62.070305   13.698475   27.544237
H   73.736397   55.318741   98.575684
H   72.748955   25.796103   90.213287
H   32.722878   38.070282   78.538513
H   26.898441   15.001572   99.041115
H    7.703463   76.614243   94.475967
H   32.304657   90.679825   67.889755
H   18.458609   51.463932   46.515060
H   95.190285   16.921682   57.121269
H   25.501720   81.380020   56.172668
H   49.128826   80.948997   39.813454
H    0.116416   18.689228   15.801735
H   66.480362   49.288750   60.210831
H   35.684570   98.139343   15.218729
H   70.334984   18.902122   39.948536
H    8.311956   48.289467   92.820045
H   91.510918   94.600838   75.316673
H   14.201382    4.073299   19.652061
H   87.845787   97.024315   24.184582
H   66.072510   19.905363    3.885380
H   56.865265   46.567215   41.729092
H   86.998276   74.790817   12.012341
H   84.119781   14.254820   12.765236
H   38.952602   54.696556    8.202662
H   22.553562   97.988716   80.312798
H   68.881950   24.331104   17.543169
H    7.856846   85.084480    6.702950
H   56.704159   82.536148   92.220055
H   12.413826   31.544441    6.880552
H    3.422158   59.545712   91.799400
H   42.920483   52.595634   42.640579
H   16.430414   78.435745   18.493111
H   84.416069   71.080078   11.354242
H   80.707306   69.126343    5.265746
H   66.958229    0.261166   72.326675
H    4.136415    3.631469    4.526306
H   32.769295   45.350273   60.889183
H   95.883728   77.661186   95.566673
H   57.734722   96.359840   61.782539
H    0.549106   78.282837   22.902733
H   93.552750   85.002441   54.553059
H   98.549492   49.169662   12.430136
H   48.614223   29.783476   53.137146
H   24.178448   87.864578   97.366913
H   68.235931   84.918396   83.691040
H   81.453529   21.552391   46.582966
H    8.565870   40.949818   75.655563
H   95.768311    1.544759   70.782944
H   78.697418   41.689125   29.448036
H    1.903906   73.717850   83.893723
H   53.291897   19.577869   60.634315
H   76.359299   70.595116   76.379868
H   55.187897   99.697533   44.759586
H   43.903797   13.797009    0.311514
H   70.142441   40.776531   42.971928
H   25.727190   49.972443   26.477186
H   35.404129   93.305786   40.834938
H   29.584562   97.349800   81.824585
H   67.343163   28.660221   12.103329
H   84.492180   48.000023   91.826286
H   76.492516   16.835978   85.804886
H   76.352371   99.354309   78.989006
H   53.178726   48.649448   35.916615
H   32.390564   36.356789   90.453270
H   40.252930   19.509724   27.360146
H   56.518253   19.913158   29.479752
H   32.379490   88.023109   27.091789
H   92.137352   27.856125    7.829856
H   31.317261   22.965837   58.974373
H   18.095667   61.087486   26.749350
H   70.363518   30.408405   12.185203
H    4.475199   31.977432   94.782845
H   27.947987   81.449364   73.461365
H   65.180862   26.613270   97.445930
H   10.270100   91.665237   10.557590
H   92.930664   61.537231   30.324150
H   90.849480   53.352882   50.473946
H   21.941767    5.209894    8.985617
H    5.555324   73.347481   36.172688
H   64.879272   61.456646   82.472626
