200
TIME:    0.697, STEP:   697
H   23.513773   60.958309   23.153994
H   32.037537   39.549839    8.449841
H    8.559378   89.140968   67.857903
H   33.247253   82.315285   32.549259
H   10.358057   95.311844   47.087940
H   74.751587   40.411297   52.022839
H    9.980338   54.979874   58.496952
H   13.129741    8.619990    8.850962
H    5.987473   80.654991   36.570908
H   94.773956   68.497429   78.046562
H   28.122465    4.356529    7.403298
H   32.667557   54.220829   34.517338
H   22.390675    2.174955   42.561485
H   82.803635   55.135044   64.287376
H   97.557938   75.462601   41.854153
H   15.979707    7.136803   44.464550
H    5.705548   29.122068   93.243721
H   25.710539    5.136616   35.384308
H   80.230629   13.157044   49.211292
H   91.510178   73.428734   19.755138
H   63.569550   99.571297    4.903472
H   79.855034   66.282402   52.963707
H   81.320175   59.218697   38.170746
H   18.287996   92.225708   90.153076
H   23.110039   31.083834   29.103367
H   18.282793   82.617882   91.862915
H    7.745823   67.966606   67.456421
H    4.998522   88.981659    1.933773
H   30.316551   42.638985   35.662373
H   72.398094   33.006859   82.817505
H   12.764842   70.542061   16.753546
H   23.615662   74.217270    4.854736
H   16.081131   18.819027   78.761253
H   81.301537   64.076508   46.278175
H   26.057278   70.917404   30.742599
H   18.133236   39.502148   84.716888
H   99.381180   64.565315   89.385780
H   10.310045   56.576744   94.620049
H   36.156593   30.036207   54.589939
H   85.700050   37.809193   45.844818
H   80.640289   83.875328   16.693203
H   36.086105   33.523876   26.279970
H   68.473404   77.283676   67.297729
H   36.263168   85.429802   35.092636
H   44.391712   90.238197   60.855690
H   34.628696    1.945137   47.658073
H   88.586136    3.822569    6.198640
H   78.989975   65.543633   31.218643
H    4.754170   11.409764   61.495819
H   45.763344   19.863848   86.378716
H   67.336914   64.711792    9.757566
H    3.668649   43.563824   73.367058
H   64.502525   81.352234   13.900884
H   15.605018   91.827728   88.470718
H   57.855057   66.221397   75.993515
H   99.447319   61.091267   93.612854
H    4.126265   18.474831   44.752384
H   72.401535   69.203163   97.054756
H   18.538006   83.305618   18.179462
H   32.533562   93.423012   58.546120
H   48.939442    6.460213   28.884237
H   98.150047   17.507483   52.569595
H   84.037544   34.673302   69.467026
H   35.198967   65.804337   13.871044
H   78.694710   82.891953   36.617298
H   20.812630   34.315819   41.077805
H   69.104591   13.522205   95.276924
H   94.782234   92.488945   96.319366
H   32.778000   12.028947   56.195480
H   42.606300   49.595200   50.958187
H   58.264683   84.496330   85.505478
H   19.296614   11.809662   41.565842
H   91.998184   33.563808   84.192924
H   22.753922   98.919540   73.877174
H   84.709702    8.269345   46.124596
H   64.864975    2.942492   59.891171
H   93.495987   46.963223   65.681358
H    9.628673   14.291660   32.340446
H   15.004985   50.053772   24.816723
H   61.389328   88.118217   72.588715
H   62.764240   22.378284   94.348892
H   46.731438   60.371483   73.729393
H    9.216736   18.679207   76.908478
H    9.771324   76.803307    8.746078
H   22.634357    4.156429   44.831097
H   37.542103   69.784622   18.269543
H   56.337444    3.736396    2.819045
H   71.531059    1.535318   28.679232
H   79.673752   73.169533   78.816589
H   21.155155    6.531541   49.837780
H   22.085966   38.837921   78.721779
H   80.872131   92.545090    8.339451
H   68.969612   11.707983   82.714226
H   39.535179   78.015091   81.653061
H   36.704529   50.744400   86.973312
H   50.346626   37.926876    7.574574
H   85.504829   98.472267   18.010986
H   94.331879   35.539677   52.920483
H   26.662605   65.200081   54.500790
H   75.150467    5.353117   27.361979
H   30.255949   93.061951   90.459297
H    7.565580   83.570564   63.343765
H   32.652580   20.468376   36.888817
H   43.835121   68.783249    8.310712
H   24.732937   21.467007   39.903984
H    5.515569    4.398285   22.494656
H   87.306808   35.771278   54.132385
H   62.058258   51.820858    1.070178
H   84.410538   34.321018   21.230869
H   19.047201   21.688566    7.773940
H   53.207241   92.095505    1.117384
H    4.343823   74.837341   95.716705
H   49.156719   85.577827   83.994980
H   61.676109    9.544992   63.169285
H   48.599724    0.998585   10.748821
H   95.388184   92.428825   99.550850
H   13.785421   14.877728   89.507675
H   38.452503   49.490494   24.843529
H   36.217716   74.871330   60.953484
H   82.842896   55.795895   66.390900
H   45.324287   24.796291   72.544739
H   98.570656   16.654034   61.630878
H   43.254158    2.548162   37.586411
H   97.344307   50.873768   97.852440
H   63.241798   97.637161   77.698578
H   64.465157   74.855728   16.707588
H   84.027184   51.323746   53.405426
H   65.432495   91.154228   38.862278
H   98.091660   35.941338   74.475693
H   89.895775   21.983274   74.287262
H   67.056732   68.868256   20.875889
H   64.158752   90.584000   20.104168
H   90.945473    4.828804    0.774875
H   78.511971   24.719971   55.331623
H   27.002224   93.106827   35.416893
H   50.186241    1.040333   76.948914
H   69.649315   87.729057   78.088943
H   95.116402   49.951904   75.977554
H   58.258438   50.724632   71.442001
H   43.695496   87.172401   82.759171
H   73.242424   49.629436   29.672318
H   36.199951   54.896343   56.900299
H   40.314571   65.172249   83.969841
H   36.772362    9.985057   85.697395
H   61.783085   54.610680   64.012253
H   62.684689   69.848999    7.958827
H   55.539818   94.776466   44.009689
H   30.173782   56.407410   66.203026
H   77.402435   45.711750   93.401375
H   24.029810   93.664169   72.894997
H   60.112400   69.071198   47.894173
H   53.024868   94.464264   33.830982
H   97.405861   14.750599   87.422249
H   21.990423   11.632575   64.659317
H   31.734314   65.948303   69.020706
H   77.068588   44.662060   68.121315
H   64.094925   74.589149   86.167038
H   52.543407   29.327507   20.430712
H   91.465668    0.012384   85.656586
H   58.556068   38.297302   95.778839
H   58.444988   65.843063   71.264969
H   22.146965   20.688005   31.584904
H   84.890938   14.644819   37.042030
H   28.049622   33.604942   51.646854
H   54.578461   37.595165   14.314893
H   19.787386   49.898293   59.803650
H   67.030502   90.175301   57.066376
H   24.031433   51.725101   66.910263
H    0.282710   26.684032   35.777821
H   47.328251    7.010998   85.257080
H   70.634460   11.068608   35.937721
H   30.375374   48.472584   58.861485
H   46.502842   57.816971   77.565323
H   65.598511   63.607121   84.842125
H   50.197296   91.598724   77.743301
H   15.016941   50.129387   23.725224
H   30.722992   67.197563    6.024646
H    5.780319    9.636688   70.723801
H   63.914360   10.755577   63.789902
H   64.561371   59.357307   92.831787
H   73.074303    1.566225   31.093859
H   28.445454   30.663906   86.299706
H   44.593033   89.685310   15.120903
H   61.433231   26.065994   94.002831
H   91.432808   68.512871   76.514053
H    8.827529   40.079987   86.241432
H   47.264984   96.696747    9.391182
H   68.465721   86.582344   41.517635
H   93.383553   63.211342   71.766388
H   57.923962   55.787342   71.476883
H   69.651375   15.904560   76.037971
H   43.906528   97.348587   18.803453
H   14.251451   28.396219   68.275543
H   27.119709   81.769707   42.523224
H   69.211731   33.842842   20.321390
H   76.443863   11.504834   23.305250
H   12.499009   98.020638   18.891645
H   15.628020   88.323502   34.078373
H    5.819111   12.890617   57.578423
H    3.241273   19.509642   91.399635
