100
TIME:    1.661, STEP:  1661
H    4.996045   69.699173   97.625320
H   55.066521   94.801430   82.775658
H    8.305952   93.403496    3.837216
H   81.755402   64.216942   49.118893
H   80.293625    5.893987   20.667831
H    2.259332   99.408607   43.240276
H   65.915733   73.497093   20.345222
H   89.334969   32.299519   55.687302
H   12.797447   26.595123   95.532509
H   29.448347   40.232857   72.734306
H   45.752853   33.076267   79.753159
H   92.443558    6.948040   74.697380
H   37.606209   61.214577   60.038261
H   72.838692   99.956184   83.642921
H    0.703172   21.659916   70.930984
H   34.739700   66.453972   95.163834
H   90.525558   91.841568   24.585283
H   36.639244   13.926386   41.962692
H   71.132210   48.035545   50.869289
H   47.766884   70.539169   29.421213
H   65.710541   90.859253   12.162289
H   21.615482   46.292267   77.824318
H   63.567284   81.113411   84.826477
H   64.716621   56.602818   83.714066
H   70.177116   54.441208   48.817329
H   39.042858   78.115326   33.487137
H   18.848530   73.432755   32.926998
H   92.391830   33.969570   21.675768
H   47.287811   99.791229   78.656242
H   64.683403   49.730301   15.433375
H   81.440773   70.995132   77.975189
H   70.633759    6.622462   45.496971
H   87.356277   46.955299   47.432953
H   48.282753   21.501869    1.776569
H   39.485069   33.361397   25.871941
H   16.972221   14.963705   14.929608
H   39.110565   43.707375   39.345524
H   95.339943   28.553104   39.653233
H   76.049026   45.050545   82.928116
H    6.746161   56.686680   68.719193
H   21.730522   13.176295   81.476974
H   82.339966   86.404289   80.836731
H   25.548002   73.460464   21.449425
H   73.293327   40.608856   43.137661
H   12.576462   66.353989   98.245926
H   56.658329   94.597816   89.915535
H   53.618702   15.341578   41.816353
H   56.328121   12.484938   71.351204
H   13.584249   94.885948   78.217117
H   60.726276   56.030880   67.491051
H   43.417896    9.284510   70.930176
H   85.854836    9.610323   65.021744
H   43.335136   31.639771    6.400860
H   38.227268   80.106224    5.112524
H    8.527149    4.116670   14.500896
H   95.644516   10.786316   36.082443
H    1.552914   41.619682   13.962475
H    2.375774   20.026630   70.771927
H   21.276680    8.949435   83.967789
H   49.409023   55.458820   16.366783
H   64.477890    1.328881   84.891075
H   39.959015   12.484280   20.198929
H   86.897461   93.885155   19.607277
H   57.098228   50.829918   82.044945
H   98.249214   28.182453   50.247334
H   99.307564   59.699806   44.396633
H   54.303604    5.788926   47.255871
H   65.629128   12.531297   45.608006
H   39.686729   30.437454   56.058640
H   64.032288   31.686113   98.235535
H   69.288017   82.386101   42.226353
H   37.010143   96.399551   78.232903
H   98.690811   36.146122   19.157726
H   93.634544   44.268570    4.490425
H   42.254929   31.007105   27.313343
H   64.929176   14.026728   84.165154
H   17.762644   82.582993   20.423548
H   10.017131   42.112183    6.169775
H   41.169456   48.636570   36.210640
H   18.067093   18.491938   77.824593
H   43.386509   46.465466   79.262917
H   65.950745   55.075150   47.885941
H   22.894138   34.979950   88.101990
H   64.433296   54.295513   11.715950
H   71.452438   44.988297   86.737198
H   13.061375   70.067894   57.128166
H   78.089149   82.584686    2.745944
H   82.693985   72.310959   78.477959
H   90.152290    1.690853   14.610252
H   19.483452   40.937965   83.594048
H   91.997475   63.119144   68.539017
H    1.184156   20.428850   65.168709
H   91.857430   77.399948   47.414780
H    7.769168   13.984139   38.811348
H   27.875023    0.946514   54.254295
H   31.113403   30.139395   81.656021
H   30.759628   63.001858   41.663681
H   12.963769   30.380096   29.460384
H   29.585850   44.010212    5.917537
H   42.395096   36.038639   37.708076
