100
TIME:    5.743, STEP:  5743
H   28.946379   95.359886   93.888138
H   41.866859   16.067739   40.220119
H   78.477982   87.078751   55.931911
H   82.440552   96.037811   25.369114
H   43.731522   33.084198    9.989399
H   38.963398   94.986275   47.495182
H   51.978642   49.133289   39.563160
H   68.497818   85.444412   80.890907
H   12.454033   34.127441   38.585518
H   17.899893   98.844337   32.579411
H   66.055161   97.324829   86.554543
H   36.647095   11.557409   84.136330
H   77.594193   14.299778   54.368340
H   70.721886   87.374336   94.284248
H   50.354790   57.039474   74.712646
H   70.610153    9.425286   56.321991
H   62.289223   61.824184   96.196289
H   23.878111   15.383739    0.444331
H   34.716969   19.278490   65.923935
H   37.790100   83.853798    7.342716
H   23.478951   84.483521    1.369860
H   12.967346   51.707901   30.208755
H    9.065713   47.914772   68.036316
H   85.450661    5.531222   80.548523
H   24.181286   30.711212   78.953224
H   20.366488   56.883186   50.371330
H   66.854568    3.746331   13.915627
H   47.963741   24.503517   56.607925
H   36.047218   70.141907   85.697937
H   21.205273   48.700584   39.940231
H   42.078842   37.041546   55.011055
H   28.373631   93.840286   67.605782
H   74.887077   48.296837   15.171750
H   20.757065   47.411003   29.806940
H   38.016632   24.793108   74.436081
H   71.866837   35.245506    1.370540
H   30.627762   94.213501   60.991253
H   26.624142   53.855991   27.709240
H    2.656981   56.286308   87.773186
H   22.267370   74.543404   89.881737
H   42.757904   53.237495   77.648293
H   16.225399   64.124313   73.148582
H   60.708660   97.939011   16.297291
H   12.634485    9.039022   42.255928
H   58.492146    5.303895   47.554668
H    3.992890   72.455765    6.492754
H   86.601852   37.162430   80.592903
H   56.546124   54.521011   23.922186
H   32.903450   56.813652   15.382886
H   46.325794   18.143484   81.991013
H   43.107250   15.193853   13.967540
H   84.231926   30.831627   97.043709
H   27.999020   55.308594   69.325798
H   43.695831   13.498767   85.239647
H   83.528496   61.894985   49.195721
H    0.748635    6.492644   97.121521
H   60.331718   23.835152    2.194458
H   98.420319   34.532524   65.628891
H   43.214493   81.424690   70.590828
H   80.039673   69.215118    0.266013
H   21.973534   11.496401   66.625328
H   95.087624   74.487045   35.501862
H   63.954105   15.390858   39.655701
H   37.401024   73.047684   71.219498
H   60.274139    2.159815   30.390013
H   48.544334   56.771507   85.754311
H   26.797176   46.911915   44.334793
H   83.657372   45.985996   40.751209
H   43.133167   37.130974    0.040624
H   46.736931   36.998276   89.640015
H   39.667183    4.646914   93.256386
H    0.431076   60.925980   77.098068
H   32.537552   34.233727   14.496246
H    3.785735   85.944359   61.923882
H   39.064243   36.828220   36.756851
H   61.429550   75.646049    9.498943
H   88.382164   28.780680   92.615959
H    1.796915   75.200539   31.604158
H   36.910351   36.649723   81.757729
H   17.882847   96.170784   26.156475
H   23.253557   88.695633   23.234526
H   72.239166   81.715012    6.538696
H   81.132668    3.162381   76.878296
H   45.258675    3.599741   38.882473
H   72.692604   89.656700   91.033035
H   19.114635   20.003292   40.594650
H   50.716713   85.789894   97.391830
H   48.392235   45.513248   36.031776
H   74.866562   74.411293   81.220467
H   58.581135   72.994431   29.516298
H   59.049889   83.536728   54.743450
H    3.222742   27.407522   42.952896
H   53.590805   99.836464   63.119587
H    2.306932   61.594311   14.040631
H   57.298820   35.306843   48.053593
H   68.269836   68.946869   70.815460
H    6.750313   97.259880    6.903995
H   27.192011   70.620728   63.588379
H   35.129669   61.606113   64.001793
H   95.931656   31.260521   44.499645
