100
TIME:    4.699, STEP:  4699
H   99.548744   91.099159   94.843948
H   70.700478   59.497215   74.393616
H   60.526215   11.969031   68.187462
H   82.265320   39.052238   82.595222
H   53.082535   49.403076   38.294647
H   55.156422   96.117317   44.104084
H    6.696429   78.637054   57.920925
H   50.554161   95.125671   76.747765
H   38.117546   34.503784    4.300966
H   46.428505   83.854042   91.696625
H   63.165497   55.316959   87.117920
H   76.493935   59.227211   58.448967
H   44.214157   77.432182   58.105713
H   22.414169   90.592232   14.835536
H   37.658440   50.293610   24.895184
H   12.587223    0.737210   42.983337
H   46.241554   92.773560    1.156855
H    1.553025   66.178749   36.634228
H   18.456905   75.483109   10.924723
H   65.915367    6.027502   36.262367
H   85.431404   88.416840   29.705654
H   12.878052   50.321976   19.114990
H   23.005608   56.405556   97.905396
H   82.453461   93.038788   58.085327
H   61.520782   13.504845   71.243019
H   25.125628   87.741776   48.545193
H   56.879623   47.145969   93.202003
H   36.053982   75.773148   22.095201
H   13.346484   75.422112   35.047188
H   81.174103   74.539330   56.945473
H    0.989263   43.423779   37.609016
H   62.454937   22.684395   64.254082
H    1.347862   24.680841   21.119986
H   76.645248   43.087372   73.789955
H   63.966888    3.711657   10.865410
H   81.113861   53.474644    4.654242
H   30.494577   32.449203   78.728195
H   69.772087   72.960503   54.035923
H   46.727314   79.034599   88.944534
H   20.600504   72.279274    7.741468
H   14.108482   17.418493   53.052105
H    9.301394   22.751116   23.563486
H   51.716076   91.678452   40.887459
H   79.296234   91.518616   40.178688
H   49.051800   46.491882   58.216816
H   17.464161   52.543049    2.249800
H   78.445602   80.385155   70.572823
H   56.490368   43.768143   59.325417
H    2.389015   43.278065   57.030769
H   24.429768    2.253134   55.009018
H   43.186115   15.985352    2.961779
H   33.494316   27.706923   65.582672
H    6.342758   49.255127   29.958040
H   67.871147   30.535797   39.169579
H   66.653595   70.398445   40.314648
H   99.445724    7.590831   32.661758
H   94.148621   53.959114    2.901377
H   76.158340   33.125435   92.519028
H   60.875710   37.313858   50.738876
H   48.932484   88.968552   29.959846
H   56.117340   60.045109   48.024216
H   32.137932   84.204453   82.739639
H   93.075340   86.631516   11.245934
H   65.712746   67.360611   99.559280
H   18.833052   85.542908   33.166904
H   12.678463    8.671692   24.024878
H   10.558718   10.820048   93.929306
H   55.773720   86.277664   90.841972
H   91.099106   12.146149   65.520966
H   25.588415   84.488770   91.838379
H   72.817879   75.679886    5.778997
H   86.513031   95.574112    0.660096
H    0.607225   85.874763   41.266907
H   26.765148   52.018276   23.954643
H   88.729012   35.338749   57.614223
H   36.745743    8.734121   79.745926
H   93.593521   19.267906   74.152885
H   52.747890   43.464634   73.948936
H   86.847160   39.716282   70.112770
H   69.077332   53.037045   16.098045
H    2.824138   77.894974   60.837032
H   93.896416   74.915604   93.849632
H   15.096193   85.703186   77.453262
H   73.432755   14.262476   34.235809
H   23.527136   54.960739   92.237144
H   43.145306   81.657280   68.096008
H   80.990303   61.697342   47.610031
H   31.592291   29.080881   46.875641
H   53.201523   32.538826   89.759041
H   50.884380   15.945145   92.195694
H   16.325157   27.164700   32.696087
H   25.977186   48.888908   23.064001
H   86.668602   68.513329   82.385422
H    1.403304   98.261322   43.647770
H   75.347710   28.821793   24.064064
H   82.039703   10.173527   24.739693
H   89.618095   37.346493   66.945129
H   24.114012   56.246857   80.841637
H   84.863678   57.105839   51.447197
H   31.083948   58.047222   45.071011
