100
TIME:    5.041, STEP:  5041
H   76.420326   59.735939   94.530838
H   61.254982   78.028763   95.956482
H   66.405930   36.573227   64.174431
H   82.322723   24.961620   63.850327
H   50.019272   76.815887   29.021782
H   49.851810   95.746803   77.973717
H   88.771477    1.729108   84.665771
H   23.673637   24.712711   45.346462
H   29.710533    1.621704   82.774239
H   37.082161   88.764656    5.088211
H   31.353485   69.078156   54.174274
H   63.442337   76.370003   34.104637
H   22.390366   56.751244   24.122803
H    5.481017   89.538094   40.862831
H   41.817589   19.745001    8.455286
H   98.835403   70.824722   14.593897
H   18.740028   15.394433   32.290466
H    8.866342   49.539204   24.778578
H   23.783695   89.828781   28.941614
H   56.701553   98.764442   59.547340
H   65.136635   54.370567   20.423237
H   45.665924   50.775986   89.990585
H   18.439415   53.624092   88.120697
H   50.676884   97.133270   32.684250
H   49.288605   86.382965   73.768776
H   23.566599   77.633530   16.385515
H   27.387442   32.928150   99.986061
H    7.197331   91.736557   33.401093
H   20.783089    6.451195   18.881317
H   94.288208   66.074913   84.133888
H   14.449716   74.091187   10.551064
H   84.049110   13.236098   32.593407
H   25.438187   99.659294   51.930046
H   91.095291   11.745114   59.381660
H   55.465942   77.859085   31.689857
H   10.843385   80.261238    3.578341
H   63.295555   19.923531    5.676440
H   55.636700   66.703514   78.170433
H   32.290318   71.582573   55.801804
H   88.387520   40.261803   34.649517
H   90.735474   29.152304   61.109478
H   78.564110   38.100563   39.628658
H   54.661922   93.729324   65.589424
H   57.457569   97.255798   73.617844
H   19.386648   32.999435   87.482201
H   13.051477   59.066181    3.640043
H   81.117477   98.983910   73.855263
H   56.508633   47.290634   80.486458
H   12.385246   14.954624   43.386986
H   31.602604    7.458593   31.089996
H   43.160023   82.967255    6.567114
H   50.115257   95.971970   43.130234
H   13.436740   51.238159   10.095102
H   59.950790   24.954605   54.261497
H   39.423431    0.373513   43.223965
H   99.873642    7.231080   21.019272
H   15.830081   44.090919   35.428581
H   50.692032    0.827076   83.710190
H   87.849861   51.763901   24.482338
H   26.365055   15.255597   20.232552
H   77.690643   44.141712   21.360260
H   20.000978   81.021164   67.266769
H   16.293413   63.294357   87.793945
H   89.196022   69.223618   90.275558
H   32.407730   58.228695   65.015450
H   91.669518   91.670128   44.246590
H   83.119385   22.643593   10.441364
H   32.149544    5.836949    7.191550
H    8.143801   87.572227   44.070480
H   32.517189    1.689130   91.118225
H   61.958168   52.410568    1.676187
H   58.312752   84.223862   25.699814
H   78.308517   68.956367   32.497208
H   19.237324   30.374424    3.634943
H    5.218975   35.826679   83.539764
H   44.831818   30.653151   56.733143
H   24.644732   89.625923   80.201134
H   68.815674   21.101364   92.834709
H    3.248509   38.711720   73.927498
H   52.305054   34.409588   86.634644
H    9.516472   81.433121   81.277916
H   19.557411   77.149124   65.252220
H   36.729507   91.422668   10.022563
H   96.962997   43.528610    3.000218
H    6.873914   33.567474   59.083977
H   35.273190   94.218224   91.845428
H    3.831730   36.831161   63.917862
H   37.097717    1.700357   43.319229
H   60.298691   13.497681   86.961922
H   20.646238    1.873444    4.422056
H   30.321190   45.630726   39.918499
H   51.281849   74.610779   29.579374
H    8.591302   78.777321    8.832844
H   34.459694   19.006174   66.706047
H   69.435143   98.186790   31.921829
H   10.287566   96.668671    7.074720
H   62.471428   56.973293   47.276581
H   25.369062   59.158783   75.367424
H   68.571503   58.580067   22.800209
H   52.325878   49.272305   12.124684
