100
TIME:    1.509, STEP:  1509
H   15.275009   83.638382   97.764481
H   59.294670   86.560829   73.187523
H    5.693092   82.467827    5.621655
H   81.729889   70.479149   57.451107
H   81.655075   93.710533   24.789009
H    4.616449   99.573280   28.186773
H   73.882652   63.233944    8.458626
H    1.281873   19.150043   69.643440
H   16.533897   41.209259    5.100230
H   33.601921   38.050362   66.782890
H   59.891525   26.960178   94.395126
H   98.244217   99.329277   85.517082
H   47.274361   70.410744   75.146111
H   80.364937    0.424794   72.076393
H   98.854485   35.236591   78.236893
H   40.851151   79.748405    7.780933
H    2.746158   81.789566   10.746495
H   33.391014   21.318192   47.232224
H   68.764168   41.658531   42.861782
H   51.861671   73.767685   19.072336
H   74.730438    5.991024   16.287807
H    7.040597   46.091644   90.766212
H   65.596703   82.349617   89.175232
H   78.839058   54.779819   95.002274
H   75.613640   66.496193   47.695930
H   39.739819   82.644989   47.733658
H   31.955677   79.750626   29.910704
H    5.217345   26.874722   16.651506
H   43.982758   86.000458   85.841545
H   58.854916   53.492264    3.350164
H   75.461525   57.364395   90.003265
H   61.036350   10.821862   59.568382
H   76.650223   58.076515   33.739594
H   41.860512   35.431801    8.179850
H   43.263268   44.851387   16.616631
H    3.756068    3.023129   15.452039
H   24.532082   49.273781   27.368475
H    1.622790   31.335148   28.927464
H   82.881790   48.295296   97.495865
H   21.062841   70.916405   56.759991
H   32.117668    7.960690   77.895920
H   96.000854   79.583122   73.695496
H   24.238737   72.548965   10.470414
H   82.999748   38.061066   28.276369
H   25.761307   72.351791   85.239090
H   58.619328   91.698647   89.298592
H   52.013721    7.141841   40.517525
H   56.320004   10.919966   61.946301
H    9.141561    7.474672   84.279861
H   57.538349   53.717342   78.122887
H   43.429493   23.959528   69.327515
H   78.467751   23.714785   74.999527
H   40.181999   30.758423   15.228832
H   41.746861   82.585594   98.405411
H   20.628105   90.791870   13.211056
H   95.454330   10.946060   41.256882
H   91.916214   46.005547   99.505791
H   13.693884   34.381599   74.686966
H    9.289192    2.526887   95.636368
H   59.438992   43.775166   20.690025
H   54.889751    8.397347   96.742882
H   45.353790   13.899364   27.076920
H   76.588013    4.250445   30.035011
H   46.660057   50.003075   86.171043
H   92.216621   40.322834   36.091267
H    8.645042   67.256203   35.409206
H   66.498672    0.534045   39.917492
H   76.128761    3.837914   38.341526
H   32.110619   41.359207   65.592079
H   60.953354   24.041002   98.555603
H   74.114555   92.728020   44.049351
H   49.542675    1.444193   67.104729
H    8.601749   43.664249   23.055370
H   96.979027   53.888016   13.524239
H   34.926987   30.790827   15.790302
H   61.335667    4.284882   94.393425
H    3.961973   95.756821   17.734858
H    2.875895   52.051697   97.775391
H   33.883263   49.081882   34.515205
H   25.521439   26.770227   90.919563
H   40.411961   44.892956   70.178078
H   54.545612   54.082474   60.595901
H   13.277045   32.442596   73.624695
H   53.976620   41.288677   25.599495
H   78.853439   54.496414    1.471916
H   16.560093   64.485252   46.572868
H   67.937416   93.636322   95.497940
H   80.247086   84.480515   80.057426
H   86.997993   10.153800   15.853706
H   32.922302   47.192055   78.159843
H   85.777016   54.912174   65.329056
H   89.937675    8.997423   62.272552
H   82.104622   72.844772   35.655746
H   93.077980    4.764149   28.563168
H   30.503410   14.562103   50.761375
H   18.558838   36.141655   89.506973
H   42.824753   54.278835   50.405258
H   12.405679   29.085907   31.892788
H   36.826622   43.355000   18.649555
H   32.955399   39.943241   52.347725
