100
TIME:    9.339, STEP:  9339
H   85.763824   65.590797   90.595901
H   42.555283   10.929878   66.960136
H   40.299709   45.788643   13.714552
H   83.044128   47.884209   28.259760
H   11.513754   21.319016   12.487591
H   83.197632   91.090462    3.617982
H   63.511280   91.951485   20.775143
H   85.859314   96.544693   50.718399
H   24.057426   88.385101   12.230062
H   19.677301   50.479206   73.380348
H   31.563995   42.015884   40.167793
H   99.395622   91.806572   28.168411
H   48.232666   96.711830   97.023743
H   92.670502   76.290474   67.943138
H   94.037483   35.827309    1.789320
H   26.022640   94.905746   57.822327
H   73.120155   99.674049   23.554365
H    0.775781   40.403084   75.789627
H   90.725510   70.137375   55.375072
H   40.905849    7.489817   52.175133
H   10.087021   26.490469    3.767462
H   57.719372   56.481644   23.976135
H   61.053093   18.674994   65.150726
H   51.330608   48.549774   13.478483
H   95.568954   45.531609    5.507946
H    3.571438   50.789780   12.040129
H   56.767342   54.267147   85.266464
H   44.543724   92.352661   75.471367
H   14.238811   96.399437   15.712551
H   59.091591   59.699234   25.812012
H   83.604424   59.501118   70.507141
H   55.427448   94.486465   34.706047
H   28.183662   85.197006   39.127831
H   72.696960   17.858948   78.314507
H   48.533897   52.576637   93.244583
H   84.460999   16.903112   90.066505
H   75.530090   62.520760   44.341938
H   77.992928   88.045250   81.468254
H   50.871120   77.936668   39.293610
H   83.563782   37.897400   72.808548
H   96.997498   76.625046   62.367275
H   13.173931   78.226059   56.732128
H   91.658600   19.510719   76.037865
H   83.021767   69.404152   93.852119
H   46.566490   63.435688   55.277012
H   57.577522   41.037945   21.102053
H   14.705626   32.725773   15.115488
H   56.757626   91.558670   46.421558
H   38.017738   58.993298   71.939056
H   21.809195   72.883446   30.549614
H   43.282444   68.056099   51.229401
H   59.004574   97.148834   60.988869
H    2.582087   76.159424   60.479485
H   60.417839   54.833054   43.919930
H   97.209358   77.030624   79.771927
H    5.227472    2.710002   74.705185
H   88.304169   20.073845   44.204124
H   30.654306   94.933464   73.003685
H   26.825962   33.375542   94.530128
H   42.740643   45.615345   97.987221
H   48.814175   44.263981   86.257240
H   67.458549   41.015976   72.796333
H    8.084941   70.006371   93.067200
H   84.332581   92.636490   73.587555
H    3.003027   14.952404   65.269066
H   27.639469   78.004295   98.378929
H   38.283432   71.233673   17.949097
H   35.257263   51.645088   12.660812
H   22.355989   78.745361   74.507782
H   19.695221   17.718935   82.035751
H   25.469898   59.973843   50.128090
H    4.223748   41.509178   40.590603
H   98.071640   56.363873   22.296848
H   24.622334   58.353565   48.261604
H   12.340142   42.066418    9.390842
H   46.438889    6.114642   67.531906
H   14.963119   17.485767   56.373726
H   70.735237   40.073494   30.208000
H    9.353463   26.087132   21.880404
H   41.531609    0.279108   16.357903
H   93.641991   25.898600   38.162727
H   42.086845    5.040338    5.703538
H    8.585627   63.299351   19.341900
H   92.657509   11.317495   10.444567
H   97.599792   64.708176   42.442276
H   36.354588   52.092232   90.311600
H   90.885536   24.330788   68.862724
H    6.225393   57.760109   98.748062
H   49.496098   74.191811   51.809822
H   40.645885   25.044182   58.061401
H    6.213250   77.708405   30.684715
H   69.290329   97.861893   11.473565
H   84.101486    7.730207   41.203789
H   49.420692   79.726364   57.159542
H   95.123779   13.198383   30.684950
H   65.284698   26.944704   85.077286
H   21.316425    3.624918    0.093266
H   20.250879   48.553425   91.396751
H   63.824608   77.130257   62.799488
H   19.293228   38.980541   98.083878
