100
TIME:    9.858, STEP:  9858
H   50.665436   17.996319   90.120743
H   28.221851   39.055134   99.682732
H   49.220814   83.128197    7.621632
H   83.131241   26.501558   99.811172
H    6.863138   62.919159   98.415871
H   75.151611   90.528191   55.017181
H   36.312405   26.997454   61.361614
H   45.066940   41.443821    3.064211
H   11.299416   38.485519   79.562065
H    5.499754   57.931278   93.701302
H   83.287811   62.899109   90.174370
H   79.589424   17.820736   91.226234
H   15.137836   65.295921   45.446693
H   66.972336   74.690773    7.437466
H    0.341306   89.467682   76.827904
H    5.153342   49.512253   14.740508
H   31.385384   34.000717   70.800980
H   11.874755   15.148434   57.798317
H   98.811127   91.907562   82.728104
H   26.924305   96.467499   87.511101
H   79.288528   74.823555   89.679199
H    7.476410   57.170624   79.778534
H   54.123695   14.455618   50.302017
H    3.107147   54.758514   74.934250
H   77.006088    4.370987    9.338913
H    1.123134   35.489670   63.201115
H   12.012238   32.690983   95.561569
H    0.752823   16.577824   92.624596
H   25.523983   43.486637   91.179642
H   78.992821   46.854111   67.071327
H    4.028909    6.042191   29.445511
H   88.197556   80.144592   86.659660
H   64.743080   47.223907   85.883446
H   94.625534   70.295830   56.449287
H   35.617500   13.281013   24.821577
H   29.576021   57.556164   88.435127
H   25.309799   43.514412   85.237259
H   56.540890   78.549995   18.093224
H   28.962345   66.627892   88.999306
H   34.680248   89.309662   13.641179
H   61.526901   94.435577   74.594688
H   69.435143   80.265640   83.219963
H   96.125092   22.624989   13.526815
H   49.885677   78.115395   44.595608
H    1.525857   42.925022   99.676910
H   50.881744   50.937084   23.210569
H   18.763958   60.954159   20.098890
H   56.789303   96.904205   78.534363
H   53.187180   16.011234   51.235535
H   32.702209   80.786919   94.261330
H   46.172993   18.168716   52.203476
H   84.227585   48.990265   26.919695
H   13.347368   79.168762   30.334736
H   48.400284   46.363350   66.822578
H   55.886391   22.512552   84.182983
H    5.873886    2.164064   57.037201
H   21.206810    5.097802   93.565193
H   92.009232   45.920845   59.635887
H   67.760628   55.308075   54.687145
H    8.493362   85.506744   83.225624
H   81.554443   20.128904   45.795696
H   49.038231   36.185196   49.313095
H   43.342251   34.626488   57.494339
H   19.970921   95.463684   59.497833
H   23.603149   73.501381   13.600980
H   95.757660   52.203178   29.066751
H   96.642189   89.178833   43.006908
H   99.406105   81.326668   37.472015
H   48.224419   41.453323   41.956730
H   30.235825   43.785351   80.934967
H    8.987410   24.657673   43.903511
H   61.483734   24.276756   78.632538
H   64.232422   30.693323    8.988445
H   13.198727   25.507828   17.424742
H   37.339851   42.830631   48.741734
H   58.709862   39.378170   32.611305
H   62.099556   72.565964   65.579247
H   95.118797    6.139217   58.871948
H   34.240166   24.562664   27.673380
H   16.080181   72.007149   71.645760
H    3.802116   31.267893   69.182671
H   81.031792    8.409570   62.282425
H   41.413719   71.978920   68.769897
H   28.364105   55.729813   63.040390
H   72.329269   32.242874   92.131836
H   24.408306   71.156487   26.352802
H   25.548449   86.594933   93.610573
H   14.571463   16.230486   93.370850
H   60.266361   45.294243   47.565071
H   94.758942    3.689758   76.615082
H   27.453299    5.734214   41.645042
H    7.691072   36.894882   21.360826
H   17.370152   23.303534   81.338860
H   96.651466   10.992398   96.653145
H   86.151199   66.710976   42.611214
H    8.152022    6.451082   58.270416
H   80.120811   33.407974   70.245377
H   19.249086   74.233368   80.974937
H   39.100517   79.371422   19.326427
H   51.528786   25.663277   48.088001
