100
TIME:    1.876, STEP:  1876
H   90.456451   49.982529   97.428482
H   49.085915    6.458109   96.337822
H   12.001593    8.871264    1.313188
H   81.791489   55.359215   37.333195
H   78.367889   23.127186   14.838873
H   98.925545   99.175682   64.533226
H   54.648098   88.013924   37.158501
H   72.436394   50.899105   35.946053
H    7.512337    5.923613   81.999870
H   23.573542   43.319939   81.152428
H   25.754074   41.727314   59.042873
H   84.238678   17.724596   59.393196
H   23.930378   48.206841   38.669815
H   62.193016   99.293495    0.003471
H    3.318562    2.455641   60.596428
H   26.095215   47.647919   77.317154
H   73.239868    6.059883   44.159531
H   41.233780    3.470661   34.509079
H   74.481743   57.055664   62.195698
H   41.974915   65.972519   44.059425
H   52.952133   69.456360    6.326851
H   42.231022   46.576042   59.517944
H   60.696724   79.364830   78.675278
H   44.740807   59.181400   67.747192
H   62.487297   37.390083   50.403519
H   38.057026   71.708237   13.335101
H    0.308799   64.496292   37.193470
H   74.249893   44.005047   28.782454
H   51.962723   19.297419   68.492821
H   72.927650   44.409103   32.524715
H   89.898262   90.275452   60.962086
H   84.209045    0.682658   25.593330
H    2.499909   31.224674   66.801849
H   57.366844    1.798631   92.718826
H   34.140907   17.109108   38.963333
H   35.665966   31.853258   14.190644
H   59.731026   35.833839   56.286747
H   86.452690   24.617977   54.824551
H   66.384262   40.460930   62.322281
H   86.495064   36.558315   85.634171
H    7.038177   20.553633   86.542282
H   63.016998   96.052650   90.937820
H   27.399923   74.749756   36.978889
H   59.563850   44.212639   64.158371
H   93.926598   57.871441   16.644499
H   53.884548   98.698616   90.788185
H   55.888905   26.940256   43.653511
H   56.339603   14.698549   84.654198
H   19.868315   77.078636   69.641525
H   65.235069   59.303318   52.453861
H   43.401493   88.527550   73.197098
H   96.303673   89.660278   50.906910
H   47.795166   32.886414   93.914299
H   33.248898   76.599220   14.599314
H   91.411407   22.964808   16.325270
H   95.913528   10.560362   28.763336
H   15.182739   35.415993   34.410744
H   86.366302   99.722183   65.234207
H   38.232666   18.034029   67.462891
H   35.221897   71.984253   10.252057
H   78.040054   91.329659   68.127007
H   32.328247   10.482679   10.470426
H    1.480019   79.223976    4.857211
H   71.861877   51.999466   76.208687
H    6.782921   11.010646   70.270203
H   86.099709   49.011482   57.109112
H   37.054001   13.221686   57.635815
H   50.777672   24.827953   55.886250
H   50.402939   14.988922   42.573570
H   68.388977   42.500717   97.782806
H   62.461006   67.757729   39.647770
H   19.282618   89.264160   93.973412
H   84.672638   25.511929   13.644611
H   88.903862   30.662199   91.712303
H   52.620110   31.313025   43.611797
H   70.010887   27.806234   69.697533
H   37.283493   63.948952   24.226629
H   20.118221   28.053232   18.043743
H   51.475586   48.006687   38.608788
H    7.522797    6.782515   59.302101
H   47.593929   48.689739   92.113182
H   82.081650   56.479263   29.907938
H   36.497311   38.568970    8.579590
H   79.222420   72.693336   92.078033
H   60.983917   31.539314   65.895294
H    8.112530   77.964394   72.058357
H   92.448509   66.952438   12.998260
H   86.155060   55.097443   76.240608
H   94.613960   89.719872   12.851419
H    0.474289   32.091721   91.280586
H    0.796164   74.729202   73.079422
H   17.092287   36.598537   69.266228
H    5.652206   83.843124   64.047623
H   28.550220   27.025503   53.306854
H   24.157238   81.689087   59.194939
H   48.871506   21.649920   70.551056
H   13.694505   75.340340   29.298950
H   13.753173   32.210693   26.019814
H   19.344513   44.936993   87.907303
H   55.747299   30.515903   17.000084
