100
TIME:    1.384, STEP:  1384
H   23.727922   95.101547   97.878922
H   62.771767   79.784019   65.302544
H    3.544596   73.474678    7.089365
H   81.708908   75.628990   64.303215
H   82.774689   83.691231   28.178368
H    6.554911   99.708702   15.807600
H   80.434395   54.792973   98.683372
H   11.106628    8.336161   81.119957
H   19.606636   53.227463   12.968759
H   37.017982   36.255547   61.888222
H   71.518723   21.930500    6.435946
H    3.015069   93.063637   94.414864
H   55.225143   77.973381   87.570580
H   86.554283    0.810170   62.564304
H   97.334328   46.401257   84.245041
H   45.877014   90.681328   18.156723
H   12.795811   73.523117   99.365730
H   30.719772   27.396912   51.565720
H   66.816765   36.414276   36.276661
H   55.229095   76.422714   10.561747
H   82.148117   18.435501   19.680504
H   95.054680   45.926659    1.409324
H   67.265633   83.366234   92.751511
H   90.452904   53.280643    4.285699
H   80.084465   76.410591   46.773727
H   40.312977   86.370041   59.449547
H   42.735054   84.946243   27.430197
H   15.764061   21.040142   12.519713
H   41.264786   74.659363   91.750511
H   54.061749   56.585983   93.413017
H   70.544380   46.154907   99.894775
H   53.143742   14.275355   71.140266
H   67.845901   67.222252   22.478605
H   36.579063   46.887337   13.445801
H   46.370338   54.300392    9.005356
H   92.887848   93.203934   15.882119
H   12.542966   53.851418   17.518927
H    6.789080   33.623013   20.106930
H   88.500839   50.963676    9.476548
H   32.836395   82.617989   46.924747
H   40.659729    3.671658   74.950974
H    7.235161   73.973610   67.822769
H   23.162039   71.799377    1.441656
H   90.982002   35.965843   16.054556
H   36.603905   77.284195   74.542679
H   60.231991   89.314461   88.791237
H   50.693836    0.398530   39.449409
H   56.313328    9.632982   54.212002
H    5.487953   17.826813   89.265671
H   54.916698   51.814762   86.866173
H   43.439030   36.027641   68.009537
H   72.392845   35.313984   83.204941
H   37.588959   30.033630   22.488678
H   44.641262   84.624550   92.889359
H   30.579697   79.834152   12.150331
H   95.297928   11.077429   45.512177
H   83.991180   49.612343   87.617287
H   23.002163   46.186180   77.906570
H   99.430977   97.245300    5.232506
H   67.687744   34.166897   24.245323
H   47.004772   14.210231    6.488949
H   49.790283   15.063086   32.733162
H   68.109848   12.774811   38.610451
H   38.076035   49.323105   89.564217
H   87.255608   50.306850   24.450075
H   16.323799   73.470345   28.018232
H   76.527512   96.212067   33.882641
H   84.763329   96.688950   32.365803
H   25.880264   50.340912   73.431282
H   58.421349   17.753904   98.818817
H   78.083748    1.232962   45.548527
H   59.849033    5.592915   57.952637
H   16.752327   49.846920   26.260670
H   99.729424   61.798744   20.953362
H   28.900475   30.612967    6.314138
H   58.380230   96.273705    2.804619
H   92.613060    6.590807   15.523403
H   97.003159   60.225639   90.872696
H   27.891329   49.448093   33.120934
H   31.651657   33.578140    1.688431
H   37.965786   43.599773   62.706997
H   45.166225   53.266129   71.048172
H    5.367787   30.356333   61.719028
H   45.377338   30.592264   37.016884
H   84.939789   62.315590   13.589075
H   19.437328   59.893414   37.892525
H   59.588951    2.724853   89.537476
H   78.234833   94.488373   81.356331
H   84.403999   17.113440   16.876488
H   43.974434   52.335220   73.690926
H   80.661507   48.163021   62.689281
H   80.688942   99.596550   59.891228
H   74.084221   69.098740   25.985193
H   80.996834   97.182091   20.135071
H   32.664768   25.759193   47.888908
H    8.234360   41.077873   95.963348
H   52.746780   47.105297   57.594055
H   11.946723   28.021606   33.892670
H   42.781364   42.816174   29.119946
H   25.192490   43.154263   64.386909
