100
TIME:    8.658, STEP:  8658
H   31.816410   28.041204   91.219376
H   61.363419   74.029312   24.019196
H   28.593981   96.795639   21.708382
H   82.929825   75.940544   65.589790
H   17.616007   66.734131   30.950466
H   93.755127   91.828239   36.176567
H   99.205101   45.968231   67.520042
H   39.384567   37.628712   13.244397
H   40.797707   53.861298   55.097904
H   38.279335   40.701054   46.716438
H   94.908966   14.615779    5.767484
H   25.389175   57.671368   76.643318
H   91.657639   37.929573   64.698105
H   26.388639   78.389503   16.117245
H   85.766060   96.657600   34.537422
H   53.404114   54.468651   14.351063
H   27.882271   54.629124   61.560249
H   86.208023   73.540733   99.398514
H   80.116058   41.567791   19.499332
H   59.251575   21.951818    5.809473
H   50.498726   94.285553   22.251631
H   92.431236   55.577606   81.969620
H   70.145424   24.210924   84.634293
H   14.604506   40.403046   64.056931
H   19.924698   99.536636    0.481007
H    6.783672   70.865646   76.126282
H   15.489553   82.574661   71.757858
H    2.005354   60.565876   52.961403
H   99.430321   34.613155   47.903282
H   32.978416   76.553818   71.674835
H   56.804035   98.435799   24.385674
H   12.428625   13.301964   97.749672
H   80.215103   35.021400   77.777969
H   43.923630   80.268707    7.004194
H   65.482002    4.137920   51.813198
H   25.262430   63.564011   92.207100
H   10.214200   87.459724   90.681969
H    6.141966    0.504511   33.412094
H   79.615654   92.775352    5.288155
H   47.706291    1.649856   19.227617
H   43.538162   53.257545   46.323208
H   70.564789   75.555511   21.967499
H   85.797943   15.424549   26.849682
H   26.501774   57.971054   27.267948
H    5.638820   90.297142   96.999199
H   66.364708   28.049690   18.335386
H    9.381417   95.689034    8.575504
H   56.716061   84.544586    4.285460
H   18.113327   15.395111   99.101746
H    7.515280   62.513737   78.165825
H   42.907093   33.769875   44.696625
H   25.908010   60.341648    5.692188
H   88.459724   72.210754    0.028885
H   76.190552   65.945572   13.870044
H   51.432259   17.350340   73.984009
H    4.379288    3.426348   97.888031
H   45.130859   39.723671   79.435249
H   81.363464   59.246040   90.544090
H   73.114891    4.599412   46.811493
H   87.680275   93.270248   17.356468
H    5.853500   75.933228   39.349926
H   91.628563   47.354630    3.606774
H   61.853550   16.476458   39.765411
H   37.569088   88.926819   92.073563
H   75.975113   69.344818    1.850346
H   69.474312   11.858489   58.112888
H   92.920547   47.690731   85.069931
H   82.298386   12.697453   80.105072
H   88.415283   27.677666   17.217392
H    5.864386   83.513077   83.480133
H   47.098469    6.309284   58.295601
H   60.301064   64.120506   90.673996
H   42.473740   90.051079   39.759319
H   39.611691    1.455625   88.725075
H   79.535980   41.063663   57.757008
H   30.337671   62.470879   13.356210
H   53.114090   76.428955   44.293915
H   38.744724   84.599937   92.595764
H   76.695045   28.087444   14.279509
H   74.929039   37.377617   75.026817
H   80.310036   18.853342   97.459778
H   90.985703    0.619516   62.674660
H   65.513329   51.910557   54.487972
H   45.805443   53.043190   72.642143
H   30.758224    7.311544    8.457619
H   52.029766   27.075844   43.021088
H   45.403095   73.845024   36.390114
H   95.273491   12.252062    5.807855
H   35.364017   12.108980   57.379524
H    0.854775   53.064148   33.719933
H   78.343712   40.937084   16.303246
H   18.903223   46.643494   98.499199
H   40.447910   87.299126   88.541016
H   84.027451   38.443714   10.594179
H    6.898216   74.199265   15.038267
H    9.036941   53.836731   20.252205
H   75.371117   64.543602   39.259422
H   21.565371   14.858525    5.070650
H   96.266045   74.189537   19.838879
H   76.992386   56.453403   63.688496
