100
TIME:    8.385, STEP:  8385
H   50.278557   53.076591   91.469315
H   68.903244   59.236423    6.805672
H   23.901377   77.154602   24.912807
H   82.884003   87.187798   80.552803
H   20.062284   44.851978   38.352676
H   97.987427   92.124001    9.140300
H   13.512778   27.533152   46.171085
H   60.841827   14.011518   38.311134
H   47.508568   80.109055   72.282288
H   45.735847   36.781178   36.027382
H   20.302750    3.631383   32.064194
H   35.809547   43.987209   96.076073
H    9.066069   54.452621   91.828979
H   39.905739   79.230965   95.341560
H   82.450203   21.043289   47.665466
H   64.380600   78.346153   37.012970
H   49.835243   36.573116   36.707985
H   80.371948   86.824989    8.861584
H   75.862930   30.114338    5.117374
H   66.606766   27.749361   87.222420
H   66.698936   21.463840   29.661280
H   66.258461   55.215195    5.218064
H   73.790367   26.430174   92.444885
H   39.970512   37.137177   84.331146
H   29.687939   21.187561   98.465065
H    8.071379   78.913681    1.815935
H   39.030991   93.921890   66.342514
H   25.040037   47.823154   43.936523
H   93.494270    9.845007   60.808464
H   22.511082   83.310501   49.971802
H   46.058743   73.954277   45.984566
H   95.191429   20.844059   23.022591
H   60.986141   54.995689   53.183975
H   32.388947    5.287525   18.504534
H   72.276176   24.807823   35.202671
H    1.531766   42.179649   93.065224
H   84.029411   97.457283   69.170555
H   17.425213    5.500778   14.148047
H   91.137840   98.723900   31.743153
H   73.419525   27.207449   97.748596
H   62.196106   43.891083   39.891445
H   93.571671   74.484940    8.030278
H   83.448517   13.786928    7.131344
H   43.932934   53.386757    0.576532
H   29.319469    1.065543   73.638237
H   69.888847   22.843670   17.226282
H    7.246951   80.842659    5.953952
H   56.699398   81.732773   87.393852
H   10.134026   38.004173    9.992144
H    1.784909   58.358501   97.252831
H   42.925838   60.125938   41.818161
H   12.639507   85.673264   23.613586
H   82.798607   70.627808   15.884386
H   82.514008   70.398651    1.824026
H   73.168617   93.425919   71.663742
H    4.039267    3.713517    7.181610
H   27.824669   47.600914   53.470757
H    1.691786   85.027245   97.575706
H   51.582653   93.064217   67.770584
H    5.696212   72.287872   25.121239
H   88.632523   88.630127   60.634312
H    1.317878   49.895676   15.959482
H   43.318493   35.106110   58.485840
H   18.822315   87.439682   99.484253
H   65.140259   91.147827   76.427338
H   86.245216   25.430016   41.970997
H   14.824163   38.253452   71.889816
H    1.156308   97.083855   67.054092
H   74.810272   47.293709   34.340294
H    0.319732   69.799759   84.059158
H   55.769268   24.885204   61.569801
H   82.782730   73.184959   70.662216
H   60.273560    3.555779   46.759693
H   45.620640   18.733601    4.945872
H   66.385025   40.661678   37.057896
H   23.882998   44.973068   31.725607
H   28.319988    0.056525   39.451347
H   25.920279    2.449749   77.516113
H   63.602470   28.889332   11.232857
H   88.317436   52.248985   98.546074
H   74.965508   16.029032   81.142929
H   70.499039   98.848480   85.514793
H   48.244812   47.345005   28.488071
H   27.024338   29.682123   97.577721
H   44.050812   24.388889   34.921211
H   58.313648   17.048084   24.063217
H   27.170046   93.694344   23.372459
H   90.882896   34.097855    8.638603
H   29.698311   27.308527   59.612312
H   24.991899   64.296768   23.961042
H   67.171440   26.196934   10.537986
H   98.703987   26.111305   93.296303
H   22.948017   79.109459   67.429504
H   57.642731   21.881092   92.186501
H   11.618877   98.651627    8.765320
H   86.488190   64.617432   34.352928
H   97.040825   48.876595   54.959755
H   22.092325    1.350471   10.551603
H    9.270984   73.010658   42.706211
H   60.034512   63.457943   89.986267
