100
TIME:    4.177, STEP:  4177
H   34.848297   38.969086   95.321854
H   85.117287   31.209208   41.479149
H   51.553543   74.414253   74.312614
H   82.177704   60.557976   11.206882
H   57.758041    7.562472   52.448608
H   63.252934   96.682838   92.408195
H   34.054050   43.389210   17.099848
H   91.582329   49.964863   24.675419
H   50.949303   84.691803   37.159611
H   60.693977   76.358894   71.258209
H   11.720657   34.313023   37.399807
H   96.414619   33.061897   95.606102
H   77.524155    8.998386    9.974442
H   48.260139   92.201180   75.112183
H   31.310047   96.921234   49.988628
H   33.577072   46.393425   86.313416
H   88.217567   58.245571   53.637138
H   90.396568   91.573006   54.732517
H   10.326542   53.585190   83.422745
H   79.981712   17.112913    0.722244
H   16.407608   40.384113   43.871887
H   62.833405   49.629013   63.568146
H   29.975060   60.650948   12.840795
H   30.952965   86.778229   96.852020
H   80.190948   54.903389   67.387917
H   27.505198    3.170888   97.632774
H    1.891058   68.845963   82.847389
H   80.098389   51.407944    4.839482
H    1.995282   28.061867   59.723030
H   61.157837   87.458702   15.448158
H   80.447166   96.615623   78.907997
H   29.495405   37.105186   12.578209
H   64.580910   62.873055   74.094101
H   54.589920   90.925690   95.781563
H   76.942017   43.171013   79.078094
H   35.736759   12.589764    6.296543
H   80.427322   51.565414   37.596485
H   91.349510   82.510643   17.201374
H   68.761871   90.408745   39.529610
H   69.765938   21.146271   66.673096
H   49.783112   99.508698   40.754009
H   56.216171   99.322922   99.040894
H   47.219784   88.548172    3.183469
H   12.629469   82.772949   89.139648
H   94.332008   67.086212   13.547782
H   24.198643   42.586689    0.127767
H   74.367477   51.997581   65.562782
H   56.462490   38.391708   27.026985
H   87.128464   86.510651   77.852844
H   13.481753   94.310814   91.519997
H   43.225941   66.381096   97.458435
H    8.127386   76.145432   99.848480
H   95.516258   46.228394   60.277012
H   79.962151   39.054459   16.135918
H    8.215321   24.650400   35.874111
H   98.792587    8.140051   50.431870
H   61.054035   69.021095   53.254936
H   15.027606   82.421364    5.964615
H   19.708151   15.257053   90.812553
H   83.379745   48.846897   44.806770
H   23.189135   84.322044   88.724251
H   50.664726   89.063156    6.357031
H   57.637951   22.252193   47.041039
H   29.866179   64.517075   13.733028
H   98.113869   27.233570   84.554665
H   44.745338   34.621681   93.160645
H   52.440170   92.772736   68.727768
H   91.831673   56.424515   65.887352
H   65.085129   49.653748   98.257477
H   15.012770   58.234962   92.937561
H   89.393227   11.196531   12.041370
H   29.554695   12.898702   62.443401
H   34.643799   11.695774   54.652237
H   38.258770   85.050941   54.970695
H   63.559406   34.594013   18.042963
H   24.403841   75.280113   14.870783
H   46.199753   64.512985   64.921349
H   28.223385   77.597435   45.120674
H   61.813240   41.249561   64.290291
H   94.677124   81.465981   61.068932
H   92.611954   72.494644   29.637934
H   54.731133   71.506546   37.499756
H   82.075905   76.979828   27.738628
H   37.521111   69.593941   81.912338
H   48.944397   87.610741   42.839050
H   55.160641   62.485001   31.846893
H   46.127113   99.650986   22.719130
H   23.191114   70.873558   52.303848
H   42.369003   61.603432   94.028328
H   97.035233   37.423004   73.533493
H   94.962616   98.978279   21.672403
H   87.352127    9.633135   13.117579
H   53.207268   52.848839   42.018353
H   50.951313   66.600098    8.452696
H   84.372154   75.579857   12.070306
H   38.924683   30.785465   51.701515
H   31.051376    7.390084   96.965546
H   22.198408   51.802338   89.197014
H    9.730522   54.855701   95.168709
H   98.661522   71.442726   95.356110
