100
TIME:    3.552, STEP:  3552
H   77.115143   96.284912   95.894058
H    2.464265   97.327896    2.059106
H   40.810402   29.448643   81.646370
H   82.072800   86.307182   45.466351
H   63.356110   57.465969   69.395401
H   72.942635   97.359947   30.512213
H   66.808403    1.184675   68.223961
H   40.706100   95.895645   82.061272
H   66.312996   44.783127   76.501930
H   77.774284   67.384819   46.783569
H   69.856644    9.164955   97.603157
H   20.270035    1.734240   40.093376
H   17.320019   46.806519   72.088463
H   79.206871   94.127602   27.548794
H   23.706879   52.748215   80.031593
H   58.706390    1.058057   38.194679
H   38.476509   16.908558   96.740921
H   77.045128   21.967079   76.402039
H    0.592347   27.363916   50.494328
H   96.823601   30.385675   58.169304
H   53.496002    2.603828   60.832985
H    2.914047   48.799316   16.792633
H   38.319710   65.734032   30.724361
H   89.022194   79.282349   43.271465
H    2.544918    4.467155   62.772133
H   30.370764   21.772245   56.241241
H   55.786640   94.824051   70.449623
H   32.834690   22.235046   84.182060
H   88.405289   71.357254   89.267860
H   37.192001    2.927505   65.762390
H   55.850323   40.570179   28.356010
H   90.032753   54.371460   70.437630
H   20.555220    8.601387   17.789167
H   28.182335   48.203102   22.110653
H   92.477371   90.416039   41.019829
H   81.390678   63.514629    8.425992
H   20.482361   74.453598   88.349113
H   17.182098   93.945198   73.095467
H   95.140503    4.026506    0.097461
H   28.635067   79.657242   17.497839
H   92.498184   78.060562   26.029280
H   12.387657   71.275360   69.677261
H   41.836292   84.800232   58.037365
H   52.539581   72.301605   28.029997
H   48.545528   91.748230   60.065121
H   32.261959   30.665760   97.590797
H   69.484665   18.007648   59.560646
H   56.429111   31.954424   88.355583
H   68.856064   38.272629    2.782259
H    0.373503   84.802681   35.232662
H   43.273624   26.721104   90.868546
H   77.753494   34.139938   40.880207
H   82.555824   42.604431   96.574348
H   94.438927   49.254005   88.557037
H   57.977859   69.873474   30.558023
H   98.010574    8.798086   71.708344
H   21.433634   87.055077   93.812111
H   61.566887   41.445312   22.064278
H   70.414619   88.848953   38.794178
H   24.623772    0.805556   62.583260
H   83.763313   13.388391   37.453724
H   72.847191   94.880569   34.637871
H   15.205155   64.901054   89.899162
H   86.949089   61.116501   30.703663
H   73.308800   77.152168   26.351686
H   83.140266   65.692390   56.205765
H    2.584479   71.162476   38.553509
H   35.004951   20.680048   36.008739
H   33.933525   94.562271   37.457592
H    2.350398   26.797483   94.253632
H    9.239744   53.721901   19.539635
H   81.088181   33.641296   16.682137
H   75.394302   42.609127   70.676750
H   52.020290   24.601421   92.106773
H   33.428066   33.702328   70.663612
H    9.627172   35.222366   56.923992
H   89.453529   18.682526   53.868259
H   98.859741   18.463549   10.602621
H   31.844023   43.085384   57.314362
H   25.328682   15.503731   14.913126
H   80.385849   66.028732   92.283920
H    7.834405   67.424820   89.761108
H   42.533978   66.546631   68.210358
H   94.522324   16.111176   38.996292
H   79.376144   26.704647    3.425927
H   69.544983   39.525291   88.444763
H    4.384787   45.093590   92.916290
H   13.132235   20.912445   58.803139
H   29.398556   96.403008   99.140022
H   52.294582   63.138832   51.191635
H   69.385071   65.227745    8.473550
H   41.106102   62.635170    1.207658
H   13.144446   34.094833   93.686058
H   90.541817   28.687313   66.310417
H   95.177284   31.563152   97.708977
H   87.302200   55.466438   83.983391
H   80.661469   71.522636   32.911125
H   19.904821   46.480835   99.201057
H   39.504234   52.161572   47.520218
H   59.837955   87.483528   55.565018
