100
TIME:    8.744, STEP:  8744
H   26.000820   20.154875   91.140640
H   58.988235   78.689133   29.441765
H   30.072237    2.982784   20.698929
H   82.944260   72.397453   60.875732
H   16.845385   73.627411   28.618916
H   92.421875   91.735069   44.693764
H   94.697502   51.775620   74.245354
H   32.625137   45.068546    5.348062
H   38.683662   45.592773   49.684193
H   35.930397   41.935886   50.083687
H   86.909454   18.075935   97.483391
H   22.106567   61.982128   70.521645
H   86.173721   32.724510   56.151985
H   22.130697   78.124428   22.662121
H   86.810616   88.975655   30.401848
H   49.946320   46.946800    7.212218
H   20.966682   60.317097   69.389168
H   88.047318   69.355949   96.417068
H   81.455872   45.175838   24.029896
H   56.934788   20.125486   11.664728
H   45.395363   85.724396   19.917456
H    0.676140   55.691772   74.645920
H   68.997200   23.511820   82.173813
H    6.613852   41.431854   57.669529
H   16.849098   92.716843    1.115831
H    6.378021   68.330368   68.033600
H    8.073668   79.000076   73.463791
H   94.748718   64.580063   55.804405
H    1.300364   42.415829   43.837914
H   36.276115   74.425339   78.511688
H   60.188999    6.147586   17.581627
H   17.858631   10.925961   89.788216
H   86.272476   28.729305   85.525528
H   47.557266   72.387299    3.381309
H   63.341713   97.626534   57.045818
H   32.738056   70.299866   91.936775
H   18.462711   84.310310   97.458458
H    2.587540   98.930946   39.480621
H   75.985954   90.901451   96.954208
H   39.606392   93.599068   25.993937
H   37.660568   56.208153   48.349331
H   63.317200   75.892761   26.357979
H   86.538055   15.940430   33.061245
H   21.010639   59.415192   35.676228
H   98.178955   86.904961    4.358570
H   65.254539   29.689682   18.684774
H   10.053784    0.365938    9.401405
H   56.721310   85.430359    9.606493
H   20.626953    8.272842   95.671509
H    9.320452   63.822712   72.153069
H   42.901188   25.466972   45.603394
H   30.087873   52.361164    0.046640
H   90.243080   72.709412   95.034439
H   74.198547   64.542770   17.664761
H   44.584908   24.886953   74.714935
H    4.486401    3.335884   94.960388
H   50.582626   37.242195   87.614540
H   74.959656   51.124489   88.329002
H   79.897942    8.233453   40.208878
H   82.004768   99.880081   14.910423
H   11.278530   71.933472   32.644955
H   88.576256   46.554153   99.715508
H   67.692017   10.607873   33.868134
H   43.474895   89.395294   89.739059
H   79.388290   62.476322    9.859270
H   64.191170    7.583323   63.197880
H   86.020706   50.663647   89.221909
H   76.357803   17.616116   84.216370
H   92.701111   21.498253   11.823492
H    7.611080   87.833023   83.297729
H   44.367008    0.457505   57.264168
H   53.219475   61.265038   96.978073
H   36.866470   85.796745   37.554073
H   37.718761   96.012489   83.615150
H   83.678772   41.190296   64.277603
H   32.371010   67.982536    7.569647
H   60.924637   68.985840   45.819412
H   42.784504   78.976921   97.346130
H   80.819466   27.834835   15.239260
H   70.711449   32.692863   67.617821
H   81.993660   19.743052    2.599947
H   97.439377    1.177799   55.480217
H   70.952629   53.348789   62.678417
H   51.721748   60.402321   64.786980
H   26.570816    1.931803    0.121025
H   50.050228   30.234772   48.993164
H   51.146839   67.592125   40.490913
H   96.656609    5.370428    4.916177
H   37.148685    7.320723   56.676155
H   93.251511   49.525650   36.793892
H   81.863182   45.580502   18.119408
H   25.266352   53.111603    0.138157
H   45.960697   89.879021   95.191528
H   92.339279   43.661243   16.392862
H    5.411184   66.496323   17.014277
H   16.140182   50.440613   15.810211
H   68.544762   69.478996   34.313530
H   21.399370   19.113842    3.344049
H   92.169182   74.560905   12.635250
H   82.334579   54.246845   55.403568
