100
TIME:    2.930, STEP:  2930
H   19.178368   53.325371   96.463516
H   19.767036   63.606438   62.823505
H   30.118826   84.700272   88.944923
H   81.968399   11.933893   79.560486
H   68.927307    7.609922   86.260849
H   82.585457   98.033806   68.914360
H   99.409874   59.186493   19.582756
H   89.594070   42.083797   39.171345
H   81.602943    4.585787   15.653587
H   94.772606   58.453819   22.425005
H   27.713562   84.137558   57.516323
H   44.011688   70.556473   84.368736
H   56.883995   84.438202   33.910995
H   10.004680   96.044777   80.214607
H   16.140205    8.308068    9.929193
H   83.715088   55.460602   89.825539
H   88.493904   75.766724   40.117809
H   63.757690   52.214790   97.965515
H   90.902245    1.268653   17.726763
H   13.580795   43.592648   15.820612
H   90.406372   64.527557   77.716522
H   43.282303   47.973602   69.761719
H   46.624306   70.792717   48.520096
H   46.812775   71.822449   89.466133
H   24.790070   53.796455   58.179535
H   33.224155   40.304668   14.542784
H    9.421257   20.679930   58.109104
H   85.316917   93.202217   63.624538
H   74.880661   14.924663   18.669497
H   13.342927   18.322861   16.315205
H   31.368437   84.794189   77.566673
H   50.759132   71.556938   28.019264
H   76.743378   54.109352   61.754494
H    1.900110    5.205778   48.314316
H    7.939009   37.434692    3.146125
H   27.306736   14.651228   10.568002
H   60.823288   97.231918   39.337765
H   42.888382    5.326842   29.203510
H   21.395798   17.577234   60.373398
H   87.220078   37.886429   68.561562
H   35.006542   56.716999   11.375602
H   68.289452   43.358917   40.454575
H   36.478642   81.070282   13.110904
H   92.259277   61.879555   67.212975
H    2.500200   16.289455    6.838657
H   40.286572   18.802052   95.066200
H   64.625290   84.180695   53.586082
H   56.395893   25.550394   49.869713
H   50.674850   89.787224   27.594637
H   87.332787   75.340187   78.736115
H   43.321079   86.770660   84.310287
H   47.524769   91.856964   81.713036
H   69.657600   38.997864   32.699188
H    8.843304   59.404594   61.109161
H    7.501630   15.361594   25.269182
H   97.232315    9.452662   92.882690
H   82.000771    5.002759   34.654915
H    7.882625    0.184915   38.086502
H   21.359940   62.568462   86.545738
H   65.667648   52.998386   80.274422
H   44.527657   42.312954   85.949966
H   94.923180    0.670187   62.783333
H   72.978966    7.344870   32.551590
H   44.237541   57.732971   47.592838
H   48.619839   26.829460   68.427238
H   21.350502   96.613960   19.429081
H   52.489326   49.659107    8.522235
H   77.970558   85.106628    6.273543
H    2.931695   39.255211   76.468697
H   89.746887   95.512764   95.563385
H   28.992413   96.042122   27.001907
H   32.375549   54.284149   71.143585
H   15.950048   73.375542   86.621574
H   65.712517   63.964760   29.069939
H    3.439503   32.814922   23.512058
H   94.923088   95.357903   98.778351
H   32.979671   72.594620   42.868229
H   69.637054   59.136295   76.253616
H    2.018203   44.912395   50.371719
H   55.832649   49.380581   68.499100
H   68.218430   59.593853   55.107807
H   61.166412   63.362686   41.773048
H    3.180067   56.163513    8.967888
H   51.728916   62.885468   95.807129
H    9.662316   65.612671   63.721794
H   83.857361   16.677380   45.251369
H   62.842796   90.318047   63.257019
H    3.121638   70.711548   65.272163
H   16.488468   31.033934    4.228608
H    7.286711   88.726639   28.958721
H   43.930298   31.643761   95.337967
H   95.081406   15.858946   89.353600
H   73.273315   15.430809   45.585838
H   30.423382   90.958824   24.373890
H    5.931561   87.277893   83.415581
H   35.927597   80.029060   16.110901
H   30.032398   35.827114   68.682579
H   17.622244   41.184875    9.153831
H   69.135033   49.480373   99.618675
H   21.204973    3.446431   15.483077
