100
TIME:    5.558, STEP:  5558
H   41.457191   12.325030   94.057510
H   46.976265    6.042611   28.554794
H   75.296600   73.768890   58.104115
H   82.409500    3.659904   35.509834
H   45.388550   18.255632   15.005297
H   41.832851   95.186699   29.173414
H   61.673809   36.640652   25.095919
H   83.038452   69.438705   97.876152
H   17.001686   51.914383   50.231293
H   22.954596   96.188011   25.334730
H   83.263412   89.880905    4.375168
H   43.708519    2.284614   97.305046
H   89.399460   25.487541   72.750908
H   79.882118   87.944557   80.206566
H   48.104958   73.564590   83.604706
H   78.048431   25.606155   71.678436
H   77.165779   49.588428   79.355011
H   19.921850   24.385185    6.857210
H   31.836182   11.516994   56.177677
H   42.773888   87.783241   94.747139
H   34.457115    2.900175    6.391045
H   95.231216   51.462311   45.963226
H   11.536082   49.419365   73.329208
H    2.639271    3.318087   94.287460
H   30.797401   45.383110   77.586952
H   21.209822   62.352509   67.767609
H   82.806641   11.436810   10.244829
H   63.572834   15.868340   50.492165
H   32.024620   53.357090   94.443207
H   14.111998   53.279289   25.233372
H   34.797234   20.452423   69.647667
H   16.692570   98.952515   84.732170
H   61.856449   61.832527   98.505486
H   12.939954   64.365196   37.600700
H   42.615097   38.778000   63.170090
H   55.784916   20.755135    1.952361
H   12.883870    0.988492   46.413921
H   34.269901   57.242031   14.654814
H   10.466220   60.317375    5.701086
H   39.691967   91.861748   75.326988
H   55.401566   46.890259   73.289772
H   32.099113   61.305450   63.914310
H   59.115147   96.829620    2.934779
H   24.446911    5.933742   24.168043
H   74.539711   12.602794   31.723967
H    6.380161   68.927170    5.741164
H   85.156540   27.101357   78.817314
H   56.536243   52.615570   12.475425
H   27.496231   72.135559   22.762619
H   42.445751   15.327665   94.931076
H   43.120579   33.054855   12.017285
H   75.241066   47.998898    9.188698
H   24.161320   54.235901   80.069664
H   47.979546   16.517540   77.075890
H   98.258263   45.681797   47.621967
H    0.518196    6.687246    3.419373
H   48.604080   29.173210   84.599434
H   12.195634   52.003304   70.393906
H   28.624456   73.608147   84.792717
H   92.248611   54.995396    5.527840
H   10.303230   20.099636   81.050224
H    1.653477   76.209000   43.873100
H   51.393719   28.015448   52.341705
H   24.697075   72.039917   76.241394
H   52.930428   16.935524   13.161296
H   59.909233   65.968437   74.815666
H   41.640106   40.516689   35.403214
H   96.436531   35.405857   31.907141
H   33.912243   50.423897   11.643725
H   42.989563   27.692993   90.029572
H   45.541588   17.234436   95.475166
H   15.684906   67.065735   63.553864
H   44.599701   43.384079   19.240089
H    7.857738   97.653648   72.916161
H   30.145220   36.564281   22.732338
H   57.055504   63.789948   21.946936
H   71.586052   44.815884   89.344246
H   93.105270   87.296562   21.386759
H   28.039463   37.193127   79.694206
H   26.953831    6.248237   42.094513
H   19.633219   86.781723   12.177905
H   58.354012   80.515289   22.014208
H   69.431847    0.068780   59.260349
H   32.531738   87.768967   55.778797
H   81.700401    1.227793    8.966608
H   23.372944   13.207923   27.747742
H   38.360985   99.240898   88.570343
H   45.416924   60.317822   37.949921
H   71.027451   84.711967   82.733528
H   74.937347   80.604904   22.903006
H   51.478935   73.546570   50.836590
H   89.534615   13.494208   39.428535
H   41.731903   94.286690   48.813251
H   84.426949   50.370556    1.566604
H   60.497139   51.878536   43.802341
H   52.989609   76.252472   80.370895
H   21.434431   86.643044   17.543716
H   27.266317   63.560730   67.092079
H   43.942688   60.808651   79.496559
H   84.439728   36.007298   62.321873
