100
TIME:    4.664, STEP:  4664
H    1.915597   94.308846   94.875992
H   71.667122   57.600510   72.186890
H   59.924599    9.451083   68.598152
H   82.259445   40.494194   84.513557
H   53.396027   46.597672   39.243668
H   55.699291   96.155235   40.637783
H    8.530741   76.273849   55.183880
H   53.305092   92.097565   79.961189
H   38.977913   37.868881    6.504154
H   47.385002   83.351494   90.326233
H   66.421112   53.908649   90.489426
H   77.829613   57.472832   60.940346
H   46.447586   79.548653   61.583496
H   24.147053   90.700111   12.171924
H   37.232796   53.419983   26.577599
H   13.994598    3.798492   45.888611
H   49.056038   90.458420   97.970665
H    0.804592   67.881859   37.847607
H   17.911766   74.014984    9.080889
H   66.858513    6.770777   33.879402
H   87.508354   91.901031   30.655609
H    9.522568   50.275513   22.095566
H   23.472908   56.690208   98.906754
H   85.705338   92.619019   60.684853
H   62.772614   16.280609   70.984535
H   25.285177   88.776245   51.836323
H   59.897850   48.601009   92.507729
H   39.007053   74.139465   20.938166
H   12.585385   72.246605   36.701698
H   79.832016   75.405571   54.163033
H   99.611794   40.285389   40.378105
H   60.245007   23.651306   67.494209
H   98.882545   27.241514   17.966909
H   75.166443   46.294922   75.264488
H   64.836868    6.357445    8.734253
H   78.071335   50.733326    4.764358
H   27.137625   33.730942   75.970322
H   71.218849   73.600838   51.566174
H   48.204784   79.797234   92.336334
H   23.897108   75.555717    4.987734
H   16.500393   16.217665   52.227520
H   12.447060   21.180319   21.919390
H   51.414600   91.468567   38.359497
H   81.531265   90.932220   36.756447
H   52.087650   47.872688   55.221821
H   17.915707   51.875477    2.107524
H   78.172165   78.481773   70.236900
H   56.488499   43.407654   57.159813
H    1.366000   46.176662   58.427063
H   23.695705    1.720412   57.456871
H   43.188786   19.364468    2.592812
H   31.793360   30.954660   67.880188
H    5.616740   49.052185   31.990797
H   68.681847   31.106972   37.625084
H   69.440308   67.330818   40.016911
H   99.401932    7.627647   33.853241
H   91.929611   54.969017   99.572548
H   78.764542   36.430717   93.420517
H   58.115433   35.835052   53.425987
H   51.242016   86.278503   30.955330
H   53.909546   61.672649   50.752983
H   33.380150   84.530228   84.323120
H   90.699318   89.019821   13.645988
H   63.309410   67.169952    0.509512
H   17.443834   88.338165   29.907465
H   14.828445   10.411585   21.955404
H   13.366926    9.610074   92.239548
H   58.191399   84.276016   89.168770
H   89.354874   14.661026   67.715942
H   24.879320   82.728516   91.912079
H   73.929253   78.061249    6.198866
H   89.399078   96.735687   98.097649
H    2.889370   87.606178   42.164391
H   27.535793   54.233280   26.034264
H   87.041389   35.288815   54.961025
H   35.918221    6.490922   82.101120
H   90.415878   22.301487   73.533913
H   51.103527   45.753338   72.016182
H   85.168617   39.819088   69.722374
H   70.793793   54.943363   19.113335
H    2.139242   77.532883   58.745129
H   91.270454   74.687027   96.776268
H   12.882257   85.117859   74.120209
H   71.024689   11.267414   37.432411
H   25.231447   57.150108   95.630013
H   43.950932   80.371803   65.665512
H   78.652733   64.242126   45.941101
H   31.028994   31.882948   47.239601
H   52.475204   34.487602   90.045296
H   53.978977   17.385231   90.944397
H   14.892814   25.274803   31.956949
H   23.387274   46.256805   22.397097
H   84.425026   67.462837   79.678818
H   98.020493   96.138443   41.288036
H   75.952797   31.956978   23.259907
H   79.148849   11.555601   26.547478
H   92.396263   35.337902   68.957993
H   23.985571   55.948853   81.401863
H   86.531006   56.954967   54.378906
H   28.910067   58.945240   48.442783
