100
TIME:    0.792, STEP:   792
H   63.762611   49.390846   98.420914
H   79.239296   47.686756   27.959288
H   93.372101   30.883190   14.040489
H   81.609543    0.018640   96.750481
H   88.077179   36.239815   44.230370
H   15.734993    0.351662   57.180683
H   11.462336   14.816568   52.388203
H   57.636658   57.119122   35.475357
H   34.159126   10.145864   50.234177
H   53.196449   27.756432   38.704506
H   26.585114   98.110550   63.459053
H   25.611614   63.389565   36.553123
H   92.883514   13.790442   46.410278
H   15.866419    2.635349   17.511204
H   90.134865   99.280121   12.701118
H   69.679504   42.463337   67.297348
H   60.390923   34.373215   45.464607
H   18.068771   56.185730   72.089157
H   57.597000   11.577487    5.089473
H   71.210670   88.926758   70.219872
H   17.278137   77.371613   35.747787
H   38.290028   45.145287   51.818859
H   75.169685   88.180931    9.689417
H   45.456161   46.180546   48.254562
H    1.258203   23.362949   42.406174
H   43.027454    4.011180   14.939290
H   93.783569    9.553861   15.682516
H   65.713310   93.407074   92.952530
H   28.392471   20.948404   19.733932
H   31.361372   71.237839   46.350033
H   47.256779   93.065498   46.739494
H   15.764357   30.630089   25.944649
H   26.144852   10.536009   69.146568
H   11.565925    1.140737   38.384911
H   61.085426   99.050880   72.954956
H   41.416656   46.701000   17.919172
H   55.761478   75.531105   70.871834
H   31.255936   44.458340   78.330208
H   15.114452   63.601128   66.218307
H   88.595833   38.038815    0.346566
H   81.116837   83.356483   61.002735
H   60.440727   47.404137   40.009541
H   18.062796   68.249329   58.679131
H   28.784357   26.044226   58.170418
H   87.955254    0.643964   23.881258
H   67.836327   78.092827   86.424126
H   44.442860   68.466110   34.390816
H   56.281712    3.537807   17.582365
H   88.181633   66.854782   12.880265
H   42.500561   42.804142   28.271370
H   43.484196   93.180717   61.767597
H   43.622093   90.247253   22.068260
H   25.308321   26.601013   56.872940
H   58.349148   94.281044   66.765335
H   77.709122   27.935438    7.126741
H   94.557205   11.699591   65.665253
H   46.460335   66.694130   31.313332
H   67.084656    2.092664   93.154617
H   52.739441   72.232361   50.681736
H    6.755686   88.663269   41.083214
H    9.660349   41.738991   52.644333
H   70.801514   20.573532   59.521126
H   27.953438   53.145271   79.223732
H   97.424080   46.102768    5.635870
H   63.760201   97.587944   69.319435
H   52.691475    2.900477   93.015083
H   24.025217   75.742828    5.299530
H   25.657082   62.832504    4.064780
H   96.374352   92.878265   10.558741
H   46.429771   87.978661    0.065310
H   96.881844   41.514805   52.648624
H    8.663475   25.240730   14.607718
H   55.352097   79.130379   41.440968
H   12.758689   99.259705   56.137688
H    0.358287   29.770620   61.436939
H   44.383282   58.333580   42.637875
H   38.863392   57.900505    5.048275
H   69.189926   98.933357   58.180729
H   99.513756   51.182468   26.519539
H   60.684372   65.821907   52.689636
H   26.380703   37.475262   27.324238
H    0.747023   49.399918   20.551426
H   67.907494   20.476267    5.333988
H    4.651412   79.934059   91.089638
H   13.765398   99.342896   70.976967
H   33.063915   38.145977   96.782005
H   20.050619   45.768074   61.308712
H   68.704803   41.884438   87.507942
H   72.118843   50.074577   21.720543
H   96.312943   76.695602   52.526134
H   56.434452   16.197916   50.187328
H   36.886936   55.071892   48.613274
H   36.099602   51.360748   80.185966
H   23.777353   61.274765   80.218590
H   42.899387   78.787354   34.284904
H   59.337540   64.455803   26.541298
H   99.737503   13.131516   91.640198
H    9.773108   22.981079   43.363983
H   70.983025   40.264294   78.709053
H   88.427322   58.361660   21.405081
