100
TIME:    4.370, STEP:  4370
H   21.796871   21.269958   95.145157
H   79.786934   41.668182   53.649139
H   54.871025   88.299675   72.047951
H   82.210098   52.606621    0.627630
H   56.029358   23.032274   47.215439
H   60.259396   96.473747   11.521557
H   23.939045   56.422070   32.192699
H   76.412910   66.661469    6.954393
H   46.204994   66.135696   25.010660
H   55.419579   79.130089   78.814941
H   93.768280   42.078846   18.809311
H   89.049309   42.736046   81.867928
H   65.208389   97.327003   90.796875
H   38.703789   91.606300   89.798630
H   33.657387   79.681519   40.710575
H   25.816551   29.512993   70.292908
H   72.697701   71.011246   71.206688
H   94.519493   82.187462   48.040127
H   13.332596   61.682320   93.591644
H   74.780937   13.014284   13.862497
H    4.954712   21.169811   38.634300
H   81.336502   49.885223   47.132401
H   27.398232   59.081291    7.318652
H   13.021187   89.092957   82.518967
H   73.287994   39.597031   68.813271
H   26.625395   97.465790   79.483070
H   85.249077   60.823345   86.675819
H   63.812855   60.416534   11.219340
H    6.192155   45.572353   50.599586
H   68.558487   82.681999   30.790592
H   88.042183   13.922191   63.638451
H   41.681591   31.773361   94.711281
H   78.174782   48.752037   91.481064
H   62.744476   73.238342   87.650566
H   72.144699   28.581749   90.831375
H   52.514118   27.706257    5.689332
H   98.939255   44.497543   52.804188
H   83.371651   78.979652   30.820278
H   60.615536   86.203362   20.826696
H   51.587791    3.078025   81.857239
H   36.592697    6.130652   45.301006
H   38.870438    7.985190    8.107931
H   48.882206   89.705536   17.123835
H    0.305513   86.006500    8.010556
H   77.589989   59.471458   30.063776
H   21.708691   46.267872    0.912342
H   75.875290   62.493370   67.415154
H   56.472797   40.379547   38.968742
H   92.770981   70.525482   70.154755
H   17.529583   97.246925   78.020363
H   43.211216   47.748421   99.493393
H   17.506304   58.236736   87.179321
H   99.518440   47.347473   49.067074
H   75.491722   35.904839   24.651966
H   92.848694   41.564701   37.515919
H   99.034073    7.936907   43.861694
H   73.289932   63.452202   71.610786
H    0.656619   64.195091    0.993122
H   34.929108   23.412312   75.996529
H   70.642853   63.682064   39.317390
H   35.364075   75.345848   73.675575
H   43.814781   87.266739   97.624359
H   70.740730    9.081851   33.806450
H   43.119789   65.568420    8.492496
H    5.774354   11.818985    2.527774
H   32.888985   25.027046    4.572164
H   36.955643   99.445984   78.045578
H   78.499901   67.462173   75.113869
H   74.703323   35.785995   86.153748
H   18.922922   67.942383   92.531158
H   83.264793   98.064697    9.725906
H   13.640997    6.493119   76.573418
H   22.059462    2.149731   49.703255
H   34.009212   72.838249   43.503075
H   72.865364   34.869366   32.674160
H   28.967035   87.648888    1.884602
H   63.723656   47.784260   68.334541
H   37.290874   64.978340   55.779907
H   71.068855   40.682659   66.443047
H   85.212067   70.955467   44.441765
H   96.387375   74.491318   41.173138
H   69.212379   72.766983   21.360964
H   94.285652   80.201599   46.120983
H   50.798401   86.109200   64.283890
H   39.547073   75.539406   24.129807
H   50.718189   69.573799   45.249344
H   59.017143   85.618317   31.922087
H   26.297297   55.421425   50.296867
H   46.374130   50.857323   92.449837
H   79.972214   29.481956   80.433502
H    2.861017    9.399673   25.748209
H    1.632312   24.147141   16.795099
H   65.578987   58.640076   56.943340
H   69.605637   78.306259   21.465677
H   81.035530   58.292534   16.504986
H   54.865677   23.164680   41.732872
H   15.732495   18.465740   85.866043
H   22.906668   53.445618   86.107765
H    0.536550   55.687649   79.003899
H   10.649298   66.489326   76.764664
