100
TIME:    1.915, STEP:  1915
H   87.819000   46.406021   97.392776
H   48.001060    8.572649   98.797935
H   12.671965   11.676978    0.855348
H   81.798035   53.752464   35.195324
H   78.018570   26.253208   13.781467
H   98.320930   99.133430   68.395378
H   52.604252   90.647209   40.208351
H   69.371071   54.272984   32.365082
H    6.553642    2.173868   79.545113
H   22.507879   43.879921   82.679436
H   22.126389   43.296574   55.286350
H   82.750351   19.679476   56.617088
H   21.449585   45.847298   34.793678
H   60.261940   99.173286    2.971484
H    3.792981   98.972046   58.721588
H   24.527145   44.236549   74.079849
H   70.104324    8.639015   47.710152
H   42.067207    1.574045   33.157028
H   75.089333   58.691872   64.250290
H   40.924278   65.144150   46.714729
H   50.637817   65.573975    5.268330
H   45.970585   46.627518   56.197029
H   60.176018   79.047646   77.559479
H   41.117287   59.649143   64.850876
H   61.092400   34.297089   50.691246
H   37.878201   70.546021    9.679669
H   96.945915   62.875050   37.967388
H   70.959030   45.825436   30.071573
H   52.810730   22.835691   66.649223
H   74.423119   43.443863   35.625149
H   91.432411   93.772812   57.876232
H   86.671539   99.605110   21.982903
H    5.247080   28.371353   70.315277
H   59.014656   98.224533   91.075775
H   33.171501   14.160972   41.338051
H   39.056805   34.917088   14.056600
H   63.471481   34.405617   59.359806
H   84.840584   23.904163   57.576557
H   64.631119   39.628395   58.584206
H   82.821556   32.907124   88.702469
H    4.373055   21.891848   87.461105
H   59.511902   97.802818   92.770111
H   27.735853   74.983627   39.795761
H   57.073387   44.866348   67.971725
H   90.543495   56.332829   19.981928
H   53.381397   99.442482   90.946480
H   56.300709   29.044207   43.986763
H   56.341686   15.100088   87.067299
H   21.008215   73.848473   68.085953
H   66.052727   59.896923   49.726254
H   43.398518   84.762398   73.608307
H   98.199043   86.041519   48.346523
H   48.604195   33.112549   91.649376
H   32.345844   75.963066   16.320173
H   88.306808   26.383764   16.656141
H   95.962326   10.519375   27.435684
H   17.655077   34.290672   38.119957
H   83.462250   96.039154   64.229691
H   41.308403   19.681990   64.468979
H   32.648418   74.981735    9.142879
H   80.500168   89.515816   65.086082
H   30.944176   10.119598    8.705752
H    4.125414   76.564507    2.181612
H   74.539795   52.211617   75.150017
H    8.330935    7.895709   73.902054
H   83.703865   47.072670   59.415096
H   33.925003   14.569943   59.518688
H   48.083687   27.058510   57.750675
H   52.346809   12.186630   40.127441
H   69.179260   44.462440   97.700684
H   61.222618   65.104210   39.180027
H   16.066885   87.969833   96.828667
H   82.129807   23.582935   12.644558
H   88.045738   28.194201   89.394417
H   54.500305   31.368517   46.568218
H   70.932686   30.305773   67.073174
H   40.824593   60.568527   24.916491
H   21.950512   25.503111   20.197681
H   53.345070   47.892429   39.043800
H    5.610131    4.658480   55.942207
H   48.357136   49.093212   94.444160
H   85.007721   56.733963   26.646681
H   38.964863   39.220001   12.294085
H   81.905098   76.030617   88.515808
H   59.084976   29.099731   62.114670
H    7.214865   79.396782   74.766624
H   95.053230   64.116821   14.858000
H   86.782883   51.974991   75.834755
H   95.423286   87.548378   12.532375
H   97.026291   30.487053   92.674889
H    2.392233   76.835236   73.903030
H   19.977892   39.531750   70.009499
H    8.154423   85.011887   67.064743
H   32.319836   29.391146   55.936272
H   23.482849   78.195892   60.091148
H   52.092743   20.109968   68.536667
H   10.598907   77.578484   27.056046
H   13.896367   32.542755   25.395710
H   17.486782   45.105106   84.640244
H   58.169327   29.514214   13.243765
