200
TIME:    0.523, STEP:   523
H   18.167208   61.535778   20.178701
H   30.486675   37.009640    1.385894
H   12.206226   81.525017   59.287468
H   27.382032   80.281532   37.099316
H   12.205460   90.901840   49.589642
H   80.412109   45.133930   57.172932
H    7.459388   55.103333   55.129047
H    9.230498    1.106905   15.027058
H   98.921463   83.263557   40.815636
H    0.899104   70.934746   84.909813
H   22.057714    0.639685    1.904733
H   31.948044   49.576519   26.226578
H   18.120060   96.400047   49.692894
H   91.027588   54.400928   55.902798
H    5.958605   74.123138   42.282276
H   21.051476   14.306046   48.218098
H   97.520538   20.972788    1.691957
H   29.842096   96.771645   38.482063
H   74.441338   19.456358   46.649853
H   90.956604   75.818260   26.500240
H   61.481369   90.885368   12.875031
H   83.728722   59.631554   59.668983
H   86.530670   60.483818   42.345779
H   14.602485   90.639328   90.698685
H   15.547178   24.085840   35.312153
H   18.426828   74.895729   97.609726
H    4.376176   64.475243   60.460419
H    1.005001   81.803787    1.475925
H   22.988007   47.927803   36.681240
H   80.260963   28.345551   88.836456
H   12.992013   63.272587   16.540812
H   26.779793   70.139145    0.570630
H   20.285370   15.075063   76.635902
H   87.060295   63.886673   43.236839
H   34.407581   78.107224   32.066448
H   23.816990   43.469425   82.721634
H   94.387070   68.320854   88.079506
H   18.916765   52.075806    2.443208
H   42.596367   36.266792   50.722225
H   87.368736   38.524723   52.641693
H   80.588516   92.003700   10.917704
H   27.425402   37.172550   31.439688
H   71.606339   81.280823   60.836712
H   36.650803   76.978844   28.869743
H   38.446438   84.929466   54.576546
H   37.077297    6.473474   45.765701
H   85.307175   12.347329    2.383944
H   83.226074   65.546288   37.473892
H   98.024940   18.012707   61.370369
H   51.990051   19.078623   93.739784
H   71.476105   66.914139   16.653191
H   10.319995   40.568951   69.626122
H   59.809025   86.326431   11.628345
H   18.194693   88.155823   85.894012
H   65.220108   70.091103   81.620850
H    1.677795   65.378265   87.915161
H    4.622838   17.816383   46.618870
H   70.500534   65.158226    0.195631
H   22.209579   79.944351   13.971161
H   36.557922   94.400063   61.762688
H   49.502972    9.855000   33.968159
H   95.022423   17.095289   51.235443
H   79.243889   31.069016   75.337296
H   30.982859   65.556091    9.986073
H   75.897636   80.297989   29.501938
H   27.638378   27.555897   37.950180
H   75.604103   17.192564   91.682014
H   95.756630   92.093346   92.874466
H   26.588837    9.677587   58.397827
H   43.607910   46.562492   50.967480
H   58.341015   81.486855   80.851212
H   24.186846   16.383129   42.783836
H   86.475723   30.555660   90.019386
H   17.085102    2.744157   68.811378
H   82.590988    5.452691   54.306068
H   60.466919    9.085468   61.028187
H   94.231430   40.485615   68.142570
H   16.073259   11.123215   38.290367
H   13.682121   42.301697   28.670536
H   64.011833   89.088631   80.840546
H   55.379276   25.319061   96.932236
H   39.080307   63.501099   79.108482
H    9.895594   16.770573   81.999496
H   15.445454   71.113579    3.075168
H   28.830532    2.316448   49.762150
H   32.640255   75.872604   21.891666
H   48.538960    3.373818    2.420127
H   72.978050    8.011418   22.116331
H   74.347763   72.746056   78.190002
H   22.026669   98.731979   51.752056
H   29.379663   37.335838   79.495720
H   82.084152   91.018448    4.542835
H   60.703445   13.670382   87.669838
H   47.337646   84.266357   76.875336
H   32.295853   53.098083   79.726410
H   57.552376   34.036594   15.755579
H   83.144508    4.490760   10.517287
H   99.114914   32.836193   51.273037
H   30.605324   66.943108   53.884159
H   72.125061    2.525926   27.319498
H   22.492643   88.251038   82.265877
H    1.095768   80.938103   64.303558
H   29.045721   26.827503   34.457474
H   35.474434   68.461990    1.400652
H   24.963593   23.753651   34.262711
H   98.626770   12.917278   30.641281
H   79.064270   33.610748   54.942169
H   63.083763   45.140141    7.798452
H   79.988586   36.517391   12.817081
H   13.457702   24.114599    6.922339
H   50.917942   93.607544    0.994962
H   97.357399   70.461853   93.734726
H   52.178806   83.558678   87.779724
H   62.265526   13.296217   67.656158
H   54.406273   93.753036   16.849890
H    2.489107   97.518517   91.701256
H   20.939449   12.427633   87.479233
H   39.335300   40.926033   28.321617
H   29.609894   68.338631   69.552887
H   78.251022   52.323116   59.899769
H   43.508247   23.640026   78.246414
H    6.078223   20.775967   56.512646
H   39.059212    9.886821   32.424370
H   99.907738   57.134991    5.472200
H   68.448311    1.945119   83.453354
H   58.090435   70.095261   20.067196
H   88.352226   50.511307   60.125305
H   69.238480   89.789543   37.392719
H   95.950378   42.239731   78.440979
H   81.462074   22.807993   71.322922
H   60.032852   75.081024   14.226368
H   70.837479   88.858231   16.000820
H   91.513649   96.363434   99.480293
H   87.043907   20.258858   53.190342
H   18.406567   96.253036   43.412514
H   54.820595    1.263646   79.512344
H   69.361244   87.285667   69.426910
H   93.632240   55.384758   78.726837
H   53.710373   48.291298   71.483154
H   43.601242   95.517159   87.593979
H   64.628181   54.746342   24.051620
H   44.210175   49.609516   52.844078
H   45.908054   61.969864   89.838783
H   44.745415   16.283609   82.814034
H   53.604267   60.381386   58.322529
H   56.309299   66.851471   16.292301
H   51.424522   95.538460   45.255562
H   34.924957   62.884354   67.201317
H   72.750824   52.976574   95.131126
H   18.483122   91.764496   79.406456
H   66.245094   66.116150   49.207748
H   45.700306   99.279160   39.283749
H   89.322624   21.256748   93.530144
H   17.390917    7.638589   68.959137
H   24.834557   61.352829   65.873169
H   71.903229   44.230618   62.767605
H   62.273571   69.370689   84.106735
H   50.069584   32.119270   16.354246
H   99.429428    0.668002   92.109634
H   60.506851   45.396851   89.101440
H   56.735813   72.912079   75.891357
H   30.316822   21.589720   33.092297
H   77.401100   22.231234   37.114380
H   21.662617   28.493347   59.090893
H   56.244492   31.691042   12.605220
H   16.789526   55.434692   60.754814
H   70.026703   92.989632   55.221794
H   23.879433   43.808468   59.715137
H   97.918350   27.249886   36.188686
H   39.387722    8.324076   87.216492
H   73.958557    8.999345   35.952324
H   36.386452   54.935589   58.327160
H   43.140911   65.294083   82.461197
H   67.741119   67.768814   80.805153
H   58.284515   92.907654   85.924774
H    9.644813   49.189507   23.558254
H   32.510490   61.761662   98.746414
H    4.238162    9.470749   68.498886
H   68.364204   14.800680   65.824913
H   72.838425   57.490822   90.377213
H   76.251045   95.330795   35.139385
H   24.935837   30.451504   79.947548
H   52.605247   89.869835   11.673347
H   57.643841   25.744072   87.601555
H   89.182671   76.059792   77.230911
H    5.184930   38.611755   85.370583
H   41.206207   99.677017    5.535748
H   76.825081   79.211983   35.428989
H   98.422798   62.435410   69.777771
H   54.759830   56.733860   69.278519
H   61.339592   21.661327   77.280525
H   45.332943   92.619980   21.019739
H   10.386559   24.256697   64.289017
H   30.159386   74.825478   39.016594
H   75.182892   41.614777   20.890562
H   76.019058   11.077872   25.689135
H   11.342412   93.276100   13.018720
H   20.684868   91.781677   38.985531
H    8.139441   12.403751   65.360313
H    5.056086   25.404802   93.817039
