100
TIME:    7.189, STEP:  7189
H   31.159060   62.755074   92.564285
H    1.934621   94.424492   31.394299
H    3.343043   91.109825   38.953503
H   82.683258   36.464447   46.109692
H   30.779310   48.987392   70.782059
H   16.535130   93.419716   90.696884
H   76.193756   46.774036   52.642315
H   54.845070   10.542363   48.124252
H   76.908531   95.100250   47.565441
H   78.402473   19.608385   89.196175
H   31.551758   55.507542   47.268333
H   81.457214   84.038162   81.208427
H   85.330986   26.844341   10.683830
H   99.125404   82.917366    4.325261
H   67.923592   27.875908    5.184609
H   12.469109   82.952698   36.291504
H   46.010536   57.466099   27.831385
H   54.801098   45.022202   50.317505
H   57.233494   79.941132   42.105663
H   98.835403   53.144321    5.793131
H   37.671265   40.529968   62.118366
H   51.596771   53.627487    7.068492
H   89.758690   36.154549   26.665213
H   51.096664   22.829561   73.156769
H   72.464546   16.035942   89.632301
H   13.710552   14.169888   14.365596
H   42.163525   43.639221   42.609928
H   25.955086   91.997932    4.401472
H   67.488716    1.334632   17.344202
H   76.651550   12.912199   54.893303
H   98.986687   66.706253   40.608208
H   19.674953   53.884800   33.742302
H   76.741096   42.500526   45.438850
H   81.853874   14.893655   68.890213
H    2.041227   15.361824   62.437668
H   97.565498   48.502335   96.824623
H   69.316879   41.259399   74.930450
H   66.855888   27.389973   29.749176
H   41.622936   24.779882   47.644592
H   86.069847   39.173222    3.649636
H   43.933990    2.856926   11.714548
H   94.364082   69.794815   46.970676
H   73.155792    6.612589   20.743282
H   20.302219   33.309654   83.637688
H   33.063583   48.249706   71.292183
H   85.327934    0.036023   12.367350
H   97.898727   15.800263   94.471291
H   56.626400   69.414352   13.392166
H   75.170357   37.056782   57.703674
H   76.674072   40.154613   80.877663
H   43.007961   75.591858   29.208759
H   54.514156   96.652557    2.123561
H   57.995312   63.692993   85.343086
H   10.213394   89.907379   49.046585
H   68.396011   88.614449   61.496517
H    2.549650    4.971593   47.896271
H   52.002285   82.110741   39.721245
H   90.748215   97.974693   28.383970
H   57.257217   42.527439   59.585472
H   84.618904   80.358810   59.138329
H   13.187984   44.249352   53.884094
H   43.766273   61.027878   70.076035
H   62.123043   16.718422   40.499146
H   36.695324   80.924606   31.958263
H   17.665752   86.670929   65.049263
H   59.715790   84.886925   71.253632
H   10.781355   96.905640   14.146949
H   83.772255   28.684465    9.878371
H   15.199928   33.230637    9.350274
H   76.031700    9.726966   86.595154
H   93.748482    6.262208   75.913918
H   81.267815   12.900029   82.997581
H   38.255402   62.713680   77.424133
H   71.948311   94.427917   76.007782
H    8.773156   38.900600   46.376453
H   95.607841   68.321556   12.201362
H   19.697441    3.573600   18.239248
H   69.732620   80.649712   11.460296
H    6.253025   32.402363   97.886665
H   46.969376   17.400536    1.582499
H   51.551384    3.655862    9.659389
H   80.753120   91.092438   85.572411
H   72.596413   27.343542   14.586737
H   44.740925   27.337681    6.813704
H    2.285002   99.207054   50.859413
H   85.835800   73.119736   41.009277
H   47.291843   80.653603   66.342613
H   71.647911   29.802568   21.039146
H    4.874557   93.900673   69.394051
H   30.734289   13.499958   81.205643
H   18.226246   61.615410   85.280319
H   10.212099   36.160461   70.502663
H   46.282185   43.225636   74.940987
H   42.055420   49.321129   11.542098
H   32.300072    5.782067   81.282288
H   87.703491   11.846442   96.127525
H   91.973625   80.241776   23.743210
H   24.400888   42.170795   34.562912
H   66.245689   67.846046   42.883610
H   85.747658   94.153458    5.200553
