100
TIME:    7.403, STEP:  7403
H   16.687708   43.130135   92.368362
H   96.024521    6.020599   44.888447
H    7.021699    6.505774   36.440792
H   82.719177   27.647514   34.378811
H   28.861715   66.140434   64.979477
H   13.216212   93.187874   11.889683
H   64.977173   61.224979   69.377396
H   38.025093   29.055561   28.474823
H   71.648003   74.525085   34.094112
H   72.557442   22.681108   97.575142
H   11.645996   64.118347   26.655405
H   73.290497   94.764938   65.975426
H   71.684959   13.892141   89.416878
H   88.529243   82.257759   20.611347
H   70.522835    8.760368   94.892853
H    3.864110   64.235535   18.527212
H   28.801979   71.620773   47.312649
H   59.377529   34.608902   42.900192
H   60.565815   88.917664   53.379391
H   93.068741   48.600544   20.363230
H   24.972198   19.224991   56.310886
H   72.113159   53.911575   88.844467
H   86.901482   34.414101   20.541807
H   31.212160   25.389620   57.263466
H   64.810493   99.064209   91.212746
H   12.701550    7.861988   94.227135
H   23.709593   34.742691   46.856556
H    7.898530    1.986722   11.475511
H   72.141884   20.750067    7.228853
H   84.857452    7.615343   71.905937
H    7.409143   85.896896   23.677208
H   33.187099   47.972828   13.931236
H   91.814095   26.843294   64.717659
H   90.895714   95.282021   59.874496
H   96.715294   99.159081   75.456940
H   16.167934   65.263535   96.151955
H   89.843063   33.422485   91.792877
H   58.011078   23.473148   44.849930
H   32.589260   20.117735   26.906361
H   65.912651   19.139002   20.486757
H   29.308500   10.199262   16.755949
H   76.329384   70.634018   57.895008
H   74.997467    7.896292   36.199963
H    6.637973   36.901573    4.562010
H   14.500755   39.807064   89.604439
H   82.565422    4.117057   13.236757
H   99.570602   27.438896   96.525215
H   56.639462   71.618484   26.633205
H   81.426826   19.333927   49.166336
H   81.167236   43.411831   65.915688
H   42.993267   54.931793   31.464321
H   64.914398   76.795776   88.075806
H   62.434597   64.933838   72.915047
H    5.258179   86.416687   58.490067
H   51.357254    7.368011   63.316967
H    2.816187    4.746486   40.611206
H   65.568497   75.935905   60.074364
H   74.813156   77.765251   22.871191
H   74.133354   51.570911   43.157341
H   70.496132   96.806534   53.051659
H   26.687799   34.298103   37.199631
H   36.170998   59.035995   60.393570
H   76.650932    2.115211   25.824524
H   51.391171   82.090347   26.147518
H   26.159824   69.579926   84.977882
H   46.569366   74.248314   83.906982
H   93.611542    4.304391   24.479429
H   68.989876   40.923332   20.108810
H   25.866264   17.853958   95.928680
H   80.375847   20.478609   86.141953
H   86.953224   91.701706   73.347328
H   63.647320    5.790748   98.683784
H   24.301977   52.128948   71.938293
H   67.236366   80.883118   63.292389
H   19.081148   39.215710   62.602131
H    0.666093   82.036156   97.801979
H   39.133503   85.052071   22.034437
H   79.786728   66.657555   23.279184
H   16.514837   31.773777    0.273801
H   36.474442    5.742630   83.146187
H   55.740868    5.869790   22.450089
H   96.812263   92.480225   67.668327
H   86.131416   30.922400   34.967583
H   59.462894   45.650143   87.267632
H   91.865173   85.818993   30.114523
H   80.911606   80.979507   55.870026
H   61.584415   65.094063   76.546928
H   75.089622   12.678095   18.820320
H    9.316148   81.985298   67.643806
H   11.813766    4.694859   88.856430
H   26.983997   73.171257   89.799606
H   26.045931   52.255524   74.581123
H   60.000050   49.647007   91.489937
H   62.736710   62.304283   25.971689
H   28.599644   86.613846   86.199951
H    5.379058    3.396149   85.074211
H   74.987114   92.522873   11.435325
H   23.987818   52.758793   30.266973
H   56.051170   68.770149   24.958302
H   99.041023   88.661087   84.585861
