100
TIME:    4.781, STEP:  4781
H   94.003334   83.579323   94.768875
H   68.435768   63.940926   79.563660
H   61.935715   17.868225   67.225273
H   82.279083   35.673943   78.100838
H   52.348068   55.975739   36.071228
H   53.884556   96.028481   52.225132
H    2.398877   84.173706   64.333435
H   44.109123    2.219938   69.219170
H   36.101830   26.619843   99.139290
H   44.187569   85.031441   94.907257
H   55.538055   58.616428   79.218964
H   73.364632   63.337471   52.612022
H   38.981552   72.473595   49.957764
H   18.354271   90.339485   21.075998
H   38.655663   42.968964   20.953526
H    9.289944   93.565201   36.176697
H   39.647621   98.197601    8.621641
H    3.306493   62.188892   33.791454
H   19.734089   78.922714   15.244562
H   63.705795    4.286116   41.845314
H   80.565407   80.253876   27.480045
H   20.739471   50.430832   12.131927
H   21.910789   55.738655   95.559357
H   74.834778   94.022247   51.995010
H   58.587921    7.001625   71.848610
H   24.751825   85.318161   40.834545
H   49.808350   43.737019   94.828590
H   29.135227   79.600632   24.805971
H   15.129630   82.861870   31.170975
H   84.318420   72.509850   63.464333
H    4.216600   50.776577   31.121437
H   67.632484   20.419060   56.662926
H    7.123966   18.681551   28.507193
H   80.109879   35.572540   70.335335
H   61.928650   97.513016   15.858406
H   88.242065   59.897160    4.396255
H   38.359184   29.446007   85.189499
H   66.382530   71.460289   59.822193
H   43.265812   77.247856   80.998032
H   12.877031   64.603035   14.193075
H    8.504578   20.231863   54.983990
H    1.931482   26.431269   27.415369
H   52.422390   92.170181   46.810112
H   74.059875   92.892456   48.196510
H   41.939236   43.256851   65.233665
H   16.406254   54.107075    2.583133
H   79.086227   84.844505   71.359840
H   56.494747   44.612717   64.399117
H    4.785807   36.487064   53.759453
H   26.149570    3.501227   49.274048
H   43.179859    8.068565    3.826216
H   37.479454   20.097937   60.199478
H    8.043712   49.730591   25.195581
H   65.971794   29.197617   42.788109
H   60.124725   77.585457   41.012203
H   99.548325    7.504575   29.870285
H   99.347443   51.593056   10.700386
H   70.052383   25.381361   90.406967
H   67.342964   40.778488   44.443359
H   43.521580   95.270950   27.627571
H   61.289886   56.232014   41.631104
H   29.227892   83.441208   79.029770
H   98.642021   81.036057    5.622948
H   71.343239   67.807297   97.333359
H   22.087790   78.994019   40.803104
H    7.641361    4.595371   28.873358
H    3.979534   13.654845   97.888168
H   50.109444   90.967239   94.762047
H   95.185593    6.254150   60.378006
H   27.249723   88.612793   91.665710
H   70.214088   70.100693    4.795303
H   79.751434   92.852707    6.663787
H   95.260727   81.818306   39.164230
H   24.960133   46.828838   19.082630
H   92.682869   35.455738   63.830288
H   38.684509   13.989561   74.228043
H    1.038333   12.160660   75.603050
H   56.600399   38.102528   78.477104
H   90.779747   39.475422   71.027412
H   65.055908   48.570812    9.033808
H    4.428750   78.743301   65.738060
H    0.048668   75.451126   86.992943
H   20.283129   87.074524   85.262131
H   79.074509   21.279596   26.746628
H   19.534178   49.831360   84.288139
H   41.257839   84.668968   73.790314
H   86.466896   55.735275   51.520096
H   32.912231   22.516039   46.022934
H   54.903183   27.973398   89.088387
H   43.634182   12.571228   95.127304
H   19.680931   31.592457   34.427776
H   32.044483   55.056030   24.626219
H   91.924980   70.974480   88.726608
H    9.329059    3.235154   49.176289
H   73.930077   21.476501   25.948090
H   88.812561    6.935550   20.504311
H   83.109245   42.052334   62.229279
H   24.414930   56.945038   79.529106
H   80.957367   57.459309   44.578621
H   36.177044   55.943295   37.171429
