100
TIME:    7.653, STEP:  7653
H   99.781487   20.204296   92.139481
H   89.119919   19.568180   60.652683
H   11.319010   24.491119   33.505383
H   82.761139   17.346878   20.675301
H   26.621534   86.179039   58.200760
H    9.339049   92.917030   36.648201
H   51.875454   78.105331   88.927719
H   18.375587   50.682987    5.520101
H   65.502525   50.488678   18.357407
H   65.729134   26.270739    7.364232
H   88.391617   74.177704    2.574182
H   63.749886    7.295951   48.179863
H   55.743340   98.760559   64.571754
H   76.150551   81.487190   39.637150
H   73.559334   86.429153   82.868927
H   93.812057   42.369690   97.774689
H    8.698351   88.157486   70.071136
H   64.723572   22.443832   34.235107
H   64.458939   99.404266   66.550003
H   86.331985   43.292393   37.384407
H   10.136841   94.336487   49.526447
H   96.080902   54.243454   67.554642
H   83.563622   32.380867   13.388471
H    7.983515   28.380342   38.695427
H   55.868843   79.239227   93.059059
H   11.522808    0.492959   70.701897
H    2.151775   24.350252   51.817570
H   86.803795   13.655860   19.739359
H   77.577827   43.431782   95.411369
H   94.443787    1.427427   91.780510
H   17.248617    8.315411    3.898052
H   48.972317   41.066319   90.787544
H    9.423496    8.552774   87.239632
H    1.458681   72.370949   49.342117
H   90.493523   80.230553   90.666138
H   37.899570   84.844376   95.366127
H   13.821622   24.266405   11.491715
H   47.678970   18.897419   62.490997
H   22.035900   14.671301    2.680126
H   42.366280   95.734726   40.156685
H   12.223425   18.776609   22.645842
H   55.260811   71.614395   70.658073
H   77.148956    9.395945   54.256832
H   90.674133   41.097740   29.005447
H   92.814842   29.944164   10.997749
H   79.338188    8.884669   14.252420
H    1.524653   41.034798   98.924660
H   56.654720   74.193405   42.101803
H   88.735786   98.629463   39.192810
H   86.416260   47.216991   48.435043
H   42.976101   30.796156   34.100082
H   77.064209   53.597744   71.664978
H   67.619347   66.383423   58.396309
H   99.469208   82.338776   69.522171
H   31.452137   29.276958   65.442368
H    3.127561    4.483510   32.100616
H   81.418564   68.722313   83.851372
H   56.197433   54.156090   16.431028
H   93.849327   62.135715   23.965199
H   53.998726   16.022671   45.941063
H   42.458080   22.672047   17.708435
H   27.298012   56.709030   49.081085
H   93.622520   85.055817    8.681274
H   68.558708   83.452194   19.359264
H   36.083199   49.612423    8.259315
H   31.211445   61.820030   98.688934
H   73.553864   12.947166   36.549725
H   51.720741   55.220818   32.060257
H   38.326973   99.890572   80.250275
H   85.453209   33.034687   85.611710
H   79.014839   74.691971   70.348976
H   43.061306   97.489647   17.008371
H    8.000822   39.763607   65.529602
H   61.732548   65.059753   48.437958
H   31.123194   39.583828   81.557358
H    6.576663   98.057884   80.979164
H   61.838581   63.415054   26.468069
H   91.532181   50.310772   37.086483
H   28.502523   31.039448    3.063812
H   24.214611   92.123863   61.608406
H   60.635124    8.456155   37.392258
H   15.571860   94.101471   46.753918
H    1.943542   35.103306   58.777016
H   76.662865   67.042969   64.432854
H   79.692474   70.178734    5.880506
H   75.159042   90.161484   73.230713
H   78.281349   46.917030   88.467857
H   79.110313   92.673218   16.228233
H   14.505090   68.065468   65.599129
H   89.710663   94.409561   97.794266
H   37.215015   86.671471   95.079147
H   44.543400   71.058167   79.345680
H   76.025589   57.148609   10.822818
H   86.898903   77.471519   42.828777
H   24.276638   64.221573   91.944885
H   26.028046   93.523926   72.161461
H   55.143059    6.869722   97.057350
H   23.505259   65.128120   25.247786
H   44.141685   69.849709    4.017521
H   14.569286   82.244766   60.503399
