100
TIME:    2.378, STEP:  2378
H   56.507721    3.946665   96.968887
H   35.121895   33.675835   28.003439
H   20.630484   44.986526   95.422096
H   81.875748   34.677452    9.816290
H   73.871521   63.364704    1.228167
H   91.143074   98.631828   14.246870
H   28.339863   21.911163   76.415550
H   32.980186   94.329651   89.853706
H   95.172157   57.658401   50.401081
H    9.856554   50.527916    0.807901
H   79.059265   61.926502   10.688833
H   65.081238   42.887405   23.660154
H   91.998009   17.835289   88.775139
H   37.336601   97.746193   38.207264
H    9.425087   57.614594   36.463875
H    5.909760    3.740462   35.647232
H   32.879791   39.257942   89.864563
H   51.961487   79.058418   17.104118
H   82.302513   78.114029   88.645111
H   28.451340   55.313046   78.237953
H   23.162735   19.479679   92.700775
H   90.361526   47.240814   16.769577
H   53.994301   75.282097   64.312943
H   98.099518   65.202087   30.462952
H   44.532463   97.577454   54.107086
H   35.755222   56.750286   66.281013
H   57.022003   43.626949   47.155186
H   31.893480   67.436714   45.376431
H   62.878098   64.842720   44.762413
H   92.177010   31.984726   72.432854
H    9.646634   35.294094   21.241093
H   15.905375   86.810722   79.120705
H   37.860661   94.496925   12.025975
H   78.577141   55.793228   71.569809
H   21.661324   79.161499   69.530907
H   79.312149   71.289604   12.465249
H    7.880499   17.448534   95.842529
H   65.701988   15.429913   90.250648
H   44.697617   29.602961   13.866446
H   39.212437   89.562752   25.129900
H   72.730217   37.778217   98.369186
H   17.900116   18.583099   14.521976
H   31.723944   77.760101   73.238060
H   27.507387   52.627052   13.242572
H   50.381199   38.066738   59.603004
H   47.408092    8.273487   92.825722
H   60.309193   54.161652   48.283897
H   56.366413   19.867075   15.715050
H   34.540878   35.503262   49.615761
H   75.759789   66.942604   17.344654
H   43.363194   40.063286   78.490097
H   20.698874   43.078632   17.950138
H   58.208817   35.797180   64.760674
H   21.624981   68.410774   36.750275
H   51.448441   66.974182   20.584181
H   96.541641   10.032785   11.674072
H   47.005871   20.931099   82.154976
H   48.985931   52.314987   52.304276
H   77.824257   39.245586   28.922541
H    2.096276   10.568274   95.974617
H    9.706430   67.982246   28.988285
H   14.513172    5.809175   87.757294
H   35.530834   44.991829   70.418137
H    6.331899   54.730225   62.581303
H   26.708298   70.917969   17.019342
H   55.260902   24.055489   86.791267
H   96.776680   30.576979   81.871780
H   16.101250   53.537781   79.884750
H   75.422295   78.918419   11.087651
H   78.561340   67.751045   96.725739
H   46.520729   33.600990   33.624889
H   77.889709   72.603851   30.727346
H   51.941833    0.682323    0.772189
H   77.858269   98.894333   61.876945
H   76.823631   32.027386   81.666245
H   81.876091   59.981445   35.920506
H   82.862213   20.437330   33.106144
H   43.703091   95.228783   45.768795
H   75.545441   46.533794   44.210403
H   82.903694   79.443787   16.054237
H   57.417767   53.883160   22.116127
H   19.747040   59.757706   87.930275
H   68.258621   46.948914   56.392612
H   13.754552   15.650118   46.225800
H   36.541138    0.137961   17.231873
H   96.559021   96.401802    6.918738
H   25.975973   30.452957   36.935608
H   94.236267   14.905910   71.016548
H    5.032138   61.768852    8.744749
H   56.092045   11.436768    9.226447
H   21.340210    1.837485   83.680740
H   54.237995   74.349907   78.833458
H   37.860569   98.887192    2.883449
H   77.070900   57.477169   87.154793
H   15.476643   36.723076   70.730766
H   90.334610    1.827298   44.622253
H   73.847977    4.149163    0.428321
H   15.596339   36.484924   17.986481
H   95.431175   47.100918   45.856041
H   86.923141   17.622356   68.650299
