100
TIME:    2.254, STEP:  2254
H   64.893463   15.317931   97.082413
H   38.571175   26.952650   20.181540
H   18.499044   36.065323   96.877113
H   81.854935   39.786095   16.613365
H   74.982178   53.425556    4.590174
H   93.065437   98.766167    1.966498
H   34.838512   13.537788   66.718590
H   42.726341   83.601501    1.238489
H   98.220314   69.580460   58.206898
H   13.244814   48.747459   95.952660
H   90.593445   56.937061   22.633123
H   69.813354   36.671890   32.486305
H   99.886131   25.337425    1.100152
H   43.476433   98.128395   28.770466
H    7.916625   68.690887   42.424904
H   10.895840   14.586158   45.940201
H   42.849213   31.057625   78.574463
H   49.311615   85.088509   21.403419
H   80.370689   72.912674   82.111725
H   31.791824   57.945889   69.795448
H   30.521072   31.824619   96.066803
H   78.473526   47.076202   27.329330
H   55.649879   76.290581   67.860611
H    9.620537   63.714909   39.672699
H   48.967522    7.411827   53.192261
H   36.323795   60.444592   77.904121
H   67.714821   48.781948   44.694523
H   42.355797   61.648815   41.277218
H   60.181870   53.592354   50.624107
H   87.422188   35.053696   62.575069
H    4.768275   24.173948   31.052998
H    8.076143   90.237297   90.600014
H   29.125984    3.569350    0.855073
H   73.337944   67.157120   76.793869
H   24.744011   88.534912   61.979828
H   68.531021   61.548885   12.891442
H   95.987213   21.990023   86.071777
H   70.827660   17.699474   81.499733
H   49.932083   32.304443   25.882635
H   50.891361    1.170799   15.373812
H   81.204887   33.523853   95.447800
H   29.044525   13.017644    8.696468
H   30.655859   77.016510   64.280907
H   35.425514   50.548592    1.118534
H   61.136784   42.958736   48.992165
H   49.007854    5.908375   92.322426
H   59.339497   47.418243   47.092827
H   56.359791   18.590387    8.042625
H   30.916578   45.772579   54.562630
H   73.160057   65.056190   26.017048
H   43.372654   52.034538   77.182663
H   14.673040   54.585377   26.090855
H   55.636520   35.078186   71.961967
H   24.496227   70.433418   31.278414
H   61.320419   56.103436   19.532179
H   96.386490   10.163103   15.895325
H   39.145184   24.509041   70.361580
H   58.219330   64.025131   55.498123
H   68.044044   34.006390   38.442436
H   10.278784    1.036871   99.501472
H    1.884294   73.749336   38.655918
H   18.913700    6.963587   93.367340
H   27.119823   53.447578   78.924973
H   97.817078   54.055695   65.947731
H   21.786499   80.821167    5.471444
H   62.878456   30.219917   79.459419
H    6.725588   26.289976   75.885208
H   24.666740   46.446228   73.956833
H   69.242729   87.828270   18.864937
H   76.048645   61.514343   96.986847
H   50.458168   42.037819   35.113018
H   88.114563   76.719147   21.648626
H   60.026733    6.815533    3.951787
H   80.586662    6.741338   69.246635
H   70.844627   31.850874   72.266342
H   78.945244   52.033722   44.263676
H   71.604279   31.184874   30.912977
H   37.877346    3.336609   38.920376
H   69.598602   46.898022   42.826340
H   88.984871   86.196655   26.736977
H   54.991161   52.600323   14.705242
H   10.442829   58.947891   98.298927
H   60.413586   44.878967   44.582188
H    5.224263    5.039279   57.551849
H   42.578796    7.894375   29.252319
H   99.412292   91.847542   98.307716
H   17.694296   39.468765   31.022825
H   92.240112   24.833679   72.306953
H    2.458541   68.673088    9.759146
H   67.055496   16.538788    4.793905
H   16.265625   95.141525   81.062088
H   45.062305   65.025688   76.470238
H   29.904457   95.171127   93.290482
H   65.086403   49.955166   78.793648
H   17.620853   47.830589   67.881279
H   80.092728    6.723789   51.026978
H   83.690628   97.033119    7.559755
H   15.141055   35.429138   19.970810
H    1.338226   46.566402   56.242668
H   79.222336   20.807217   80.593170
