100
TIME:    1.944, STEP:  1944
H   85.857819   43.746567   97.366226
H   47.194374   10.144979    0.627236
H   13.170446   13.763278    0.514903
H   81.802902   52.557701   33.605625
H   77.758820   28.577686   12.995192
H   97.871346   99.102013   71.267235
H   51.084469   92.605293   42.476189
H   67.091728   56.781765   29.702309
H    5.840767   99.385605   77.719780
H   21.715464   44.296318   83.814903
H   19.428879   44.463459   52.493038
H   81.643646   21.133104   54.552803
H   19.604893   44.092766   31.911419
H   58.826012   99.083900    5.178471
H    4.145749   96.381622   57.327477
H   23.361145   41.699890   71.672623
H   67.772766   10.556831   50.350357
H   42.686935    0.163741   32.151657
H   75.541130   59.908539   65.778259
H   40.143036   64.528183   48.689186
H   48.916916   62.686970    4.481224
H   48.751286   46.665794   53.727631
H   59.788826   78.811790   76.729782
H   38.422874   59.996952   62.697067
H   60.055168   31.997169   50.905197
H   37.745228   69.681808    6.961517
H   94.445320   61.669445   38.542866
H   68.511978   47.179058   31.030149
H   53.441299   25.466715   65.278343
H   75.535133   42.726120   37.930599
H   92.573189   96.373413   55.581623
H   88.502625   98.803734   19.298225
H    7.289848   26.249653   72.927826
H   60.239952   95.566849   89.854019
H   32.450661   11.968747   43.103867
H   41.578197   37.195324   13.956925
H   66.253021   33.343605   61.644901
H   83.641838   23.373379   59.622921
H   63.327385   39.009331   55.804611
H   80.089973   30.192209   90.984024
H    2.391296   22.886930   88.144333
H   56.905548   99.104225   94.132584
H   27.985647   75.157532   41.890358
H   55.221504   45.352440   70.807297
H   88.027855   55.188732   22.463606
H   53.007259   99.995613   91.064186
H   56.606922   30.608683   44.234566
H   56.343235   15.398668   88.861656
H   21.855833   71.446556   66.929245
H   66.660728   60.338322   47.698032
H   43.396305   81.962669   73.914078
H   99.608421   83.350647   46.442646
H   49.205780   33.280701   89.965202
H   31.674343   75.490028   17.599787
H   85.998260   28.926065   16.902174
H   95.998611   10.488897   26.448456
H   19.493464   33.453896   40.878090
H   81.302826   93.300491   63.482742
H   43.595490   20.907396   62.242561
H   30.734806   77.210632    8.318105
H   82.329483   88.167061   62.825001
H   29.915020    9.849615    7.393547
H    6.092514   74.586952    0.192068
H   76.531067   52.369370   74.362801
H    9.482001    5.579500   76.602661
H   81.922340   45.630989   61.129803
H   31.598291   15.572494   60.918774
H   46.080467   28.717129   59.137043
H   53.792252   10.102875   38.308525
H   69.766907   45.921158   97.639618
H   60.301765   63.130981   38.832218
H   13.675754   87.007385   98.951805
H   80.238983   22.148556   11.900928
H   87.407646   26.359022   87.670860
H   55.898399   31.409781   48.766582
H   71.618126   32.164413   65.121727
H   43.457718   58.054878   25.429464
H   23.312984   23.606867   21.799328
H   54.735199   47.807468   39.367271
H    4.187893    3.079061   53.443825
H   48.924648   49.393230   96.177452
H   87.183517   56.923355   24.221643
H   40.799709   39.704102   15.056145
H   83.899910   78.512184   85.866974
H   57.672943   27.285683   59.303436
H    6.547374   80.461891   76.780464
H   96.990074   62.008286   16.240873
H   87.249725   49.653168   75.532967
H   96.025093   85.933678   12.295137
H   94.462418   29.293839   93.711678
H    3.579059   78.401260   74.515457
H   22.123598   41.712856   70.562187
H   10.015045   85.880966   69.308243
H   35.122883   31.150213   57.891479
H   22.981380   75.598389   60.757561
H   54.488022   18.964876   67.038788
H    8.297051   79.242744   25.388245
H   14.002845   32.789673   24.931633
H   16.105392   45.230114   82.210892
H   59.970322   28.769367   10.450619
