100
TIME:    4.952, STEP:  4952
H   82.439125   67.897713   94.612320
H   63.713020   73.206390   90.345093
H   64.875427   30.170200   65.218758
H   82.307785   28.628647   68.728401
H   50.816437   69.682144   31.434666
H   51.232250   95.843224   69.160088
H   93.436317   95.719650   77.705856
H   30.668861   17.013348   53.518421
H   31.898323   10.178823   88.376122
H   39.514397   87.486748    1.602879
H   39.632050   65.497025   62.746853
H   66.838890   71.908867   40.439857
H   28.069656   62.133125   32.966309
H    9.887662   89.812416   34.089645
H   40.735237   27.694582   12.733597
H    2.414024   78.608963   21.981899
H   25.896858    9.507873   24.188444
H    6.963183   53.869289   27.863688
H   22.397484   86.095551   24.253008
H   59.099159    0.654701   53.487801
H   70.418022   63.231049   22.838837
H   37.133408   50.657837   97.569763
H   19.627693   54.347923   90.667007
H   58.946621   96.068573   39.294472
H   52.471832   93.440659   73.111488
H   23.972311   80.264038   24.754728
H   35.062157   36.628109   98.220619
H   14.706740   87.582336   30.458918
H   18.847893   98.376488   23.088161
H   90.875473   68.277641   77.058540
H   10.946841   66.110031   17.592461
H   78.429573   15.694985   40.832588
H   19.169170    6.170811   43.912224
H   87.334900   19.901367   63.131187
H   57.678177   84.586777   26.270630
H    3.106924   73.290459    3.858282
H   54.759644   23.183147   98.663681
H   59.314930   68.331795   71.889534
H   36.047314   73.521843   64.426666
H   96.770653   48.594009   27.647036
H   96.818100   26.098768   59.012676
H   86.562920   34.105911   35.447956
H   53.895313   93.195618   59.161011
H   63.140255   95.761963   64.915573
H   27.106722   36.510628   79.866356
H   14.199863   57.368641    3.278255
H   80.422165   94.143883   73.001060
H   56.503880   46.373962   74.979637
H    9.783936   22.325344   46.937561
H   29.735989    6.103956   37.314537
H   43.166813   91.559525    5.628884
H   45.789925    4.230378   48.973167
H   11.590665   50.722107   15.264112
H   62.011604   26.407021   50.334068
H   46.509644   92.573006   42.466862
H   99.762283    7.324699   24.049042
H   10.187966   46.658958   26.963966
H   57.319229    9.232180   86.002548
H   80.830193   48.003510   31.314938
H   32.237865    8.414510   22.763924
H   72.076538   48.280315   28.299126
H   23.159422   81.849564   71.293335
H   10.251187   69.367477   93.896942
H   83.084877   68.738800   92.691498
H   28.875109   65.337189   56.727375
H   97.136955   96.094597   38.984215
H   90.259918   19.566631    6.144247
H   38.297356    0.746763    2.936836
H    3.707879   93.967201   49.652672
H   30.714159   97.212891   91.305634
H   64.784233   58.466034    2.743891
H   65.651031   87.177582   19.183636
H   84.111389   73.359108   34.779381
H   21.196285   36.006962    8.922852
H    0.928017   35.699703   76.793060
H   42.727547   24.949076   62.721386
H   16.564100   97.339546   78.627174
H   64.634293   26.920872   87.919991
H   98.980629   38.973141   72.934776
H   56.669769   39.257084   94.302094
H    7.774954   80.512375   75.958504
H   12.879367   76.567886   72.694237
H   31.099787   89.934265    1.546574
H   90.839630   35.912766   11.128842
H   11.207587   39.134727   67.711555
H   37.321781   90.949440   85.665024
H   97.887596   43.302185   59.674011
H   35.664993    8.825769   44.244728
H   58.451767   18.452887   87.689827
H   28.515017    5.535378    1.240616
H   26.678947   40.825329   38.038982
H   44.696751   67.917038   27.883871
H    2.886345   76.106880    1.950319
H   25.857239   13.607656   60.705273
H   70.973793    6.158902   29.876972
H    2.936479    0.183248   11.671829
H   69.535912   51.865734   52.395004
H   25.042456   58.401001   76.792000
H   72.811279   58.196423   30.255127
H   46.798008   51.555836   20.698359
