100
TIME:    5.573, STEP:  5573
H   40.442787   10.949479   94.043777
H   46.561989    6.855470   29.500591
H   75.554550   74.848068   57.927990
H   82.412018    3.041866   34.687576
H   45.254196   19.457949   14.598602
H   41.600193   95.170448   30.658915
H   60.887714   37.653568   26.268938
H   81.859482   70.736465   96.498970
H   16.632957   50.472198   49.287041
H   22.544725   96.403389   25.922155
H   81.868149   90.484467    2.930300
H   43.135971    3.036462   96.237312
H   88.442276   24.580425   71.260429
H   79.139397   87.898323   81.348000
H   48.287376   72.224716   82.883728
H   77.445328   24.294205   70.433319
H   75.959572   50.580517   80.720520
H   20.242628   23.655338    6.337248
H   32.069798   12.146304   56.967892
H   42.369797   87.464638   95.768410
H   33.566994    1.406842    5.983921
H   96.669281   51.482224   44.685837
H   11.335782   49.297371   72.900055
H    1.245547    3.497530   93.173492
H   30.260960   44.193497   77.697731
H   21.141443   61.909050   66.357010
H   81.513229   10.813250   10.542461
H   62.307232   16.568489   50.988037
H   32.350777   54.718021   93.734131
H   14.687149   52.908043   26.425789
H   35.387634   21.797504   68.460915
H   17.639683   98.538010   83.343544
H   62.913082   60.735039   99.856804
H   13.573756   62.990532   36.968758
H   42.242249   37.644119   64.083450
H   57.088856   21.930042    1.905187
H   14.322564    0.439124   47.595867
H   33.649975   56.967487   15.713306
H    9.833047   59.990532    4.247500
H   38.279194   90.457558   76.507103
H   54.376404   47.404900   73.643166
H   30.750946   61.978706   64.619026
H   59.244350   96.919571    4.018234
H   23.489155    6.185526   25.634661
H   73.238518   12.010991   33.007549
H    6.186599   69.213272    5.802104
H   85.273727   27.917149   78.961281
H   56.537045   52.770065   13.403541
H   27.934654   70.893188   22.164265
H   42.760349   15.555975   93.881882
H   43.119434   31.606703   12.175414
H   75.970055   46.606953    8.203934
H   24.472485   54.322876   79.198540
H   47.632217   16.272751   77.737816
H   97.063957   46.996380   47.749569
H    0.536880    6.671468    2.908737
H   49.554970   28.740395   86.026054
H   11.078719   50.586754   70.007553
H   29.807432   74.241920   83.641212
H   91.258698   56.148388    5.101204
H   11.249456   19.402061   79.880638
H    1.121148   76.069382   43.194351
H   52.412128   26.991831   51.313110
H   25.727100   72.121628   75.834213
H   53.525864   15.737499   14.558219
H   58.987755   65.222740   75.702583
H   40.436646   41.035221   36.127396
H   95.400383   36.263706   32.624226
H   34.659885   49.346092   10.702935
H   43.293404   28.447445   89.997986
H   45.065285   16.213852   95.295265
H   14.448114   66.567917   64.652084
H   43.621689   42.642159   18.855453
H    7.527576   96.704247   72.024895
H   30.868429   36.585682   23.869480
H   57.410156   64.751274   20.937624
H   72.947899   43.515720   89.609520
H   93.809998   86.315804   22.215197
H   28.758724   37.149067   79.861519
H   26.218376    5.431157   40.802246
H   19.926760   86.936905   13.074407
H   59.479767   80.612564   20.759420
H   70.380562    0.319612   60.688915
H   33.563652   89.052536   54.408825
H   80.970039    0.289515    7.512550
H   23.027676   13.758899   28.789383
H   39.362801   98.150276   89.285599
H   45.658165   59.117451   37.794395
H   71.338730   83.876778   82.610847
H   73.611206   79.987839   23.439219
H   52.092796   74.356583   51.153362
H   90.644463   14.622338   39.714294
H   42.693436   94.736671   49.973225
H   85.876686   51.280590    2.578019
H   60.237816   50.534885   44.147038
H   54.228546   75.660126   79.596130
H   20.243845   87.503868   16.681061
H   27.321363   63.688446   66.851982
H   43.228119   60.873310   78.240227
H   85.371506   35.622433   60.876827
