100
TIME:    6.386, STEP:  6386
H   85.463455   36.393364   93.299454
H   24.109314   50.912930   80.763710
H   89.535431   33.337837   48.382038
H   82.548477   69.547028   90.124268
H   37.972229   84.623489   92.555298
H   28.990108   94.289665   11.172894
H   18.280384   92.550423   89.846596
H   17.959290   41.071728   21.852200
H   96.647804   72.305496   98.110268
H    0.335044    8.077440   57.755466
H    6.244858   23.196890   24.617992
H   12.103874   43.787693   38.366142
H   36.562912   75.416283   90.476494
H   38.883888   85.392433   43.218014
H   58.170357   99.603844   43.799389
H   44.757111   53.186134    2.946875
H   10.583009    4.355968   54.731117
H   37.628788   84.096405   78.152870
H   44.729504   46.254936   99.802704
H   20.468071   70.196327   51.121178
H   85.322433   20.470600   83.915581
H   74.612381   52.561493   75.451401
H    0.479944   42.685295   49.639938
H   25.706150   13.223360   32.793224
H    1.185055   79.718399   83.701942
H   17.435331   37.873596   89.906532
H   11.406597   77.019608   26.675154
H   93.709946   54.516594   77.861130
H   50.028465   28.479622   55.302216
H   45.860249   32.786491   91.057632
H   67.386696   94.700859    4.138986
H   68.973206   76.071838    8.080009
H   20.178028    1.252686   73.098267
H   47.925850   88.483994    2.720009
H   22.026398   76.160255   13.579675
H   27.761442   85.607430   99.348701
H   92.299629   70.666138   11.657063
H    0.048734   42.087215   73.083046
H   75.518250   42.275627   25.461233
H   61.702702   14.347095   40.471699
H   98.814316   75.300941   92.797096
H   62.036682   66.645844    5.977002
H   66.245209    1.795537   62.740387
H   71.574997   19.831564    5.125427
H    2.717945   79.932419    2.577125
H   95.693810   84.720016    9.105040
H   91.625290   72.130264   86.764275
H   56.580463   61.143707   63.707417
H   51.697189    3.562222   89.733719
H   59.815731   27.931417   37.022652
H   43.063099   53.116577   20.745132
H   15.482027   71.167007   54.835060
H   41.337620   59.036926   31.979399
H   28.807030    3.006700   13.613055
H   32.332603   18.243191   54.665577
H    1.549515    5.816271   75.232285
H    1.097549    5.281083   63.349190
H   50.540680   73.808540   49.067245
H   93.927612    8.593623   21.229668
H   37.608414   18.636913   81.977562
H   62.534473   81.592667   16.493717
H   72.266304   68.502090    6.406522
H    7.605542   71.513832   95.563263
H   81.555283   76.550354   53.762135
H   85.794312   50.805546   90.269066
H    9.045059   24.805962   23.774000
H   75.207626   69.140778   75.378067
H   39.241158   82.759132   71.490326
H   75.180397   90.929108   59.715237
H   59.761566   69.340752   88.286041
H   19.248123   60.897751   85.544624
H   47.411831   39.586182   24.174458
H   90.611649    2.430069   98.008850
H   89.629112   45.248928   23.718817
H   70.064323   37.745586   85.499893
H   76.628242   16.855053   66.231384
H   46.768154   73.076805    3.998208
H   32.006222   33.155083   67.116096
H   67.743279   34.761028   88.929863
H   86.349899   61.144081   70.761589
H   35.836678   95.347763   61.665226
H   20.497652   85.884995   52.751125
H   21.803436   13.914702   38.113998
H   89.496208   58.623070   80.154411
H   41.384422   49.437988   28.701202
H    4.314290   43.622993   85.246338
H   93.661217   39.038567   28.052588
H   58.733452   94.059448   29.364929
H   88.210068   38.609489   75.961555
H    1.729980   46.539654   52.499771
H   85.364067   18.257881   68.322433
H   50.798229   75.767685   55.202431
H   94.808502   19.130489   12.843760
H   64.448433    0.604425   57.397156
H   46.182503   77.710983   62.829563
H   21.379044   43.554962   37.603867
H   55.711571   34.158966   69.924591
H   25.950869    2.438882   50.681480
H    4.498865   64.378502   10.142105
H   35.869930   14.760197   82.556999
