100
TIME:    7.327, STEP:  7327
H   21.827066   50.099739   92.437943
H   98.123520    1.902111   40.096119
H    5.715261    1.038213   37.333157
H   82.706421   30.778908   38.544918
H   29.542730   60.048702   67.040207
H   14.394870   93.270210    4.363148
H   68.960632   56.092869   63.434093
H   43.998543   22.480824   35.453125
H   73.516228   81.832153   38.878323
H   74.633247   21.589861   94.599434
H   18.715332   61.060307   33.976021
H   76.190826   90.955429   71.385277
H   76.531212   18.492031   96.969795
H   92.292366   82.492012   14.827503
H   69.599739   15.549065   98.548126
H    6.920054   70.882751   24.836096
H   34.913429   66.593613   40.394070
H   57.752254   38.307083   45.534378
H   59.382374   85.729736   49.375637
H   95.116714   50.214222   15.188791
H   29.482147   26.791245   58.373356
H   64.826965   53.810684   95.316574
H   87.916191   35.032204   22.716475
H   38.273926   24.480440   62.908150
H   67.528755    5.091499   90.651466
H   13.059887   10.102177    1.378886
H   30.263166   37.902206   45.348408
H   14.311059   98.439308    8.963235
H   70.489357   13.854925   10.821230
H   81.943207    9.496469   65.864067
H    4.417924   79.081528   29.690086
H   28.388393   50.072407   20.966942
H   86.461067   32.403633   57.870979
H   87.684593    2.246956   63.076340
H   98.606712    4.913316   70.833344
H    9.561455   59.310959   96.390846
H   82.553391   36.205688   85.804352
H   61.152039   24.864170   39.487045
H   35.797482   21.773451   34.271210
H   73.071281   26.253855   14.507218
H   34.502502    7.591737   14.965506
H   82.734230   70.335983   54.015339
H   74.343414    7.440397   30.710674
H   11.490728   35.625938   97.131096
H   21.093178   42.805386   83.101021
H   83.546501    2.667723   12.927996
H   98.976852   23.305550   95.795784
H   56.634823   70.835709   21.930752
H   79.204903   25.628025   52.198288
H   79.571533   42.255062   71.229286
H   42.998486   62.269012   30.663280
H   61.220852   83.847717   93.064697
H   60.858028   64.493164   77.328743
H    7.017975   87.656372   55.136307
H   57.408401    0.707603   62.670452
H    2.721529    4.826430   43.198425
H   60.750469   78.128838   52.846153
H   80.472336   84.942436   24.829000
H   68.140190   48.359211   48.991631
H   75.511696   90.965286   55.213280
H   21.893442   37.832191   43.124954
H   38.868385   59.743393   63.832565
H   71.491570    7.301391   31.036072
H   46.172085   81.676346   28.211147
H   23.143238   75.649628   77.900429
H   51.238190   78.026512   79.413269
H   99.709076    1.676948   20.809950
H   74.239693   36.576897   16.475571
H   22.078209   23.314835    0.694984
H   78.832329   16.661562   86.303146
H   89.366493   96.872665   74.258827
H   69.906013    8.314330   93.112740
H   29.257528   55.888012   73.886536
H   68.909767   85.693420   67.808136
H   15.420365   39.103802   56.839741
H   98.869591   77.165550    2.915893
H   32.231159   91.629707   20.686613
H   76.216110   71.626732   19.081766
H   12.870456   31.997013   99.425941
H   40.201614    9.882829   89.693672
H   54.253014    5.083535   17.907669
H   91.109016   91.987366   74.026787
H   81.324593   29.651403   27.729515
H   54.234531   39.146725   94.209404
H   95.565674   90.573631   37.481819
H   82.660385   78.188187   50.592377
H   56.508549   70.619881   72.922966
H   73.867332   18.759684   19.608315
H    7.738721   86.216927   68.265388
H   18.533262    7.821903   86.139328
H   23.873768   69.067192   88.194626
H   20.422701   46.539520   73.132698
H   55.128284   47.366520   85.612740
H   55.391953   57.693443   20.847116
H   29.913837   93.421097   84.453491
H   99.101715    6.397160   88.999687
H   81.019707   88.161362   15.806258
H   24.134516   48.998569   31.792807
H   59.671654   68.441963   31.324299
H   94.320015   90.611649   91.906845
