100
TIME:    7.956, STEP:  7956
H   79.290520   92.418175   91.862076
H   80.751541   35.988232   79.757034
H   16.527285   46.290115   29.948334
H   82.811996    4.862507    4.066498
H   23.906435   10.465734   49.984955
H    4.639928   92.588768   66.656258
H   35.996342   98.563934   12.622730
H   94.560379   76.896568   77.700676
H   58.054207   21.356129   99.284622
H   57.453224   30.621370   19.229050
H   60.207291   86.369644   73.386688
H   52.184418   22.483532   26.611931
H   36.422096   80.419479   34.461735
H   61.147575   80.553261   62.696423
H   77.239571   59.363693   68.295929
H   81.629364   15.868282   72.623322
H   84.332771    8.199165   97.654419
H   71.200974    7.700088   23.732113
H   69.179443   12.116055   82.514648
H   78.167038   36.858913   58.014076
H   92.156410   64.173340   41.303707
H   25.129808   54.645691   41.751373
H   79.518135   29.917566    4.718993
H   79.831207   32.005096   16.191776
H   45.031563   55.210503   95.296791
H   10.094173   91.560593   42.187538
H   76.024765   11.754724   57.830318
H   61.236572   27.798880   29.754827
H   84.166191   70.922592   81.088036
H    6.062075   93.928146   15.867809
H   29.173555   35.485741   79.925682
H   68.103996   32.695629   62.737297
H   30.766504   86.383858   14.536267
H   14.261493   44.602730   36.576874
H   82.952736   57.289177    9.100632
H   64.239151    8.576795   94.413704
H   42.882809   13.169058   35.366909
H   35.156456   13.351912   83.874123
H    9.245534    8.070223   73.316917
H   13.827526   67.370087   63.997314
H   91.515732   29.172354   29.784391
H   29.725700   72.802612   86.128014
H   79.756561   11.213524   76.143044
H   71.325150   46.183495   58.630085
H   66.530739   17.990330   36.926788
H   75.426781   14.662780   15.483404
H    3.893285   57.512642    1.833964
H   56.673214   77.314209   60.849743
H   97.594246   73.533577   27.105366
H   92.778076   51.828846   27.248512
H   42.955296    1.542667   37.294861
H   91.789780   25.480726   51.775055
H   73.902565   68.140320   40.799599
H   92.450867   77.396347   82.893082
H    7.326020   55.831413   68.017609
H    3.504947    4.164783   21.785782
H    0.628789   59.979439   12.669343
H   33.635178   25.541525    8.626098
H   17.746964   74.938286    0.703651
H   34.004776   39.313114   37.323021
H   61.571270    8.581345   94.084145
H   16.543953   53.888748   35.370354
H   14.192973   64.379913   87.903656
H   89.364067   85.102753   11.132243
H   48.111008   25.411482   36.476974
H   12.598740   46.756950   16.605167
H   49.243958   23.422497   51.178204
H   30.790550   72.549370   46.545410
H   53.429352   78.118919   61.247711
H   91.606972   48.252651   84.969055
H   69.393517   54.076172   66.714973
H   18.110413   87.429100   39.217716
H   88.244705   24.776255   57.760281
H   55.063274   45.884022   30.434488
H   45.719238   40.029987    4.531009
H   13.740121   17.477375   60.590302
H   89.357140   37.188744   31.841631
H    5.767087   30.499447   53.820927
H   43.031601   30.149441    6.445261
H    9.355859   75.618279   35.504616
H   66.566963   11.590829   55.502167
H   38.308319   96.066422   21.405571
H   21.108942   40.170567   87.632156
H   97.509834   92.971069   36.759380
H   64.939163   51.224300   76.508080
H   68.186935    1.290175   94.271866
H   98.518028   24.886467    2.916055
H   83.983391   68.428040   13.086624
H   20.794086   51.194633   63.120979
H   62.922512   81.944839    8.625746
H   49.615009    3.033391    1.478005
H   66.962334   93.846970   85.120323
H   95.448547   66.239983   34.254272
H   16.182886   95.854210   63.259640
H   19.037155   37.079842   98.907745
H   51.054581   81.558533   56.511208
H   31.092108   24.257526   79.631706
H   22.920397   80.121849   19.164530
H   29.707390   71.158134   78.639259
H   33.388935   74.468185   31.313480
