100
TIME:    6.019, STEP:  6019
H   10.282230   70.049217   93.635452
H   34.244179   31.024618   57.623837
H   83.224258    6.935278   52.691219
H   82.486877   84.666962   10.240418
H   41.259415   55.206818    2.506248
H   34.682484   94.687263   74.828606
H   37.514500   67.770531   61.146717
H   46.804764    9.322518   55.550053
H    5.669426    7.591081   21.211935
H   10.360388    2.807508   43.385929
H   40.382309    8.430113   59.968132
H   26.112213   25.391773   64.490028
H   59.982010   97.608986   26.943535
H   57.055809   86.523628   15.288136
H   53.711296   32.385788   61.446247
H   59.513046   85.285194   33.411835
H   40.095009   80.080467   21.321661
H   29.780424    1.954556   90.876015
H   39.014729   30.857805   80.465988
H   30.354828   77.991493   26.134089
H    7.100716   57.007641   93.877937
H   39.427734   52.074295    6.704803
H    5.380376   45.670082   60.139893
H   59.806942    8.832979   60.051105
H   14.310666    8.822327   80.991554
H   19.108324   48.723549   24.418110
H   43.053947   92.273941   19.392385
H   24.676331   37.386269   65.731583
H   42.048500   95.183044   72.650940
H   31.787533   41.869652   61.881760
H   52.942215   61.789989   33.174812
H   45.800510   86.213394   42.055061
H   94.327019   28.103254   40.036011
H   32.419518   22.117180   18.180246
H   31.156090    3.928957   91.243881
H   95.859329   56.862755    0.502545
H   57.098732   84.106079   82.739052
H   15.217005   48.804386   47.184978
H   91.007782   50.272392   61.026421
H   96.271164   48.705059   11.596415
H   23.895382   62.706886   84.150734
H   92.965347   65.206650   87.240013
H   63.086010   99.594101   36.232903
H   95.010895   13.671591   69.241051
H   34.552296   94.413956   71.172348
H    0.431237   77.720047    7.614047
H   88.758102   52.171951   83.241890
H   56.560863   57.363724   40.999516
H   40.970436   33.956139    4.372640
H   52.114399   22.344381   62.685982
H   43.088299   88.547623   16.876949
H   97.645317    5.220865   78.926155
H   33.724453   56.908936   53.295704
H   37.304993    8.995173   97.419090
H   61.553276   86.081390   51.543591
H    1.092417    6.202319   87.725830
H   77.829750   15.871337   28.444542
H   77.868561    8.467058   58.520004
H   64.981339   93.086128   49.403145
H   61.825508   90.428070   92.415916
H   39.384174   98.661392   45.106792
H   85.291847   71.918076   23.012878
H   82.690742   96.556923   20.729553
H   56.354546   74.551163   63.727291
H   71.228775   80.117081   56.092411
H   31.589161   43.050682    2.073646
H    4.652487   56.452900   57.659744
H   64.592247   61.770420   53.945606
H   56.889790   17.299370   82.731659
H   52.327599   50.881241   89.058838
H   30.903072   85.868042   89.946205
H   77.672562   51.766129   97.304489
H   14.541107   20.582390    7.418945
H   97.709877   68.475365   45.524590
H   52.370243   37.221989   57.679214
H   67.953880   93.334038   90.927277
H   13.440780    4.858728   97.497002
H   14.763896   57.153778   46.847412
H   50.144756   35.839024   84.836281
H    4.347994   81.135994    2.379014
H   28.654711   91.550980   39.730122
H   92.955170   83.504868   83.451439
H   98.589027    7.777817    3.162004
H   64.245918   27.218193   13.674935
H   59.253944   72.394066   64.277847
H   12.761700   30.141247   59.760849
H   69.150124   65.722450   10.552664
H   52.831078   23.426836   33.170113
H   80.594101   59.043800   78.963142
H   34.178028   61.639988   39.381828
H   70.344933   98.440964   60.572063
H   23.643946   48.165405   48.210861
H   71.283005    8.118138   84.463089
H   28.980835   78.338936   32.650864
H   52.527275   10.583668   54.396000
H   91.066284   58.047699   56.559784
H   84.842644   13.098619   91.030899
H   26.659266   84.278381   58.048248
H   21.981598   62.795841   40.883171
H   13.075138   24.177956   17.910809
