100
TIME:    2.829, STEP:  2829
H   26.008305   62.587608   96.555984
H   22.576530   58.130005   56.452442
H   28.382734   77.433807   90.130058
H   81.951447   16.095350   85.096252
H   69.831955   99.514343   88.999451
H   84.151253   98.143227   58.911983
H    4.703248   52.366188   11.684424
H   97.532471   33.346317   48.445141
H   84.085716   14.296688   22.011177
H   97.532784   57.003609   18.469675
H   37.108337   80.073578   67.245010
H   47.866844   65.493835   91.558144
H   63.308228   90.548813   43.949196
H   15.005479   96.356087   72.528954
H   14.911533   17.329668   14.784354
H   87.775986   64.294403   98.209328
H   96.615700   69.085892   30.923380
H   61.599327   57.126396    1.467144
H   89.328743   97.031860   12.405985
H   16.301674   45.737141    8.944056
H   96.399857   74.581940   80.458206
H   33.599335   47.839523   78.362808
H   47.972801   71.614143   51.409729
H   56.196762   70.611115   96.966850
H   28.402111   61.806519   57.434395
H   33.687267   43.313740   24.009577
H   18.130611   24.878374   56.104855
H   93.839409   88.487877   60.285664
H   72.684540    5.761251   23.443556
H    9.470241   20.822586    8.286263
H   27.393457   75.736923   85.557472
H   44.381905   74.347939   37.369347
H   69.629486   61.499107   52.655617
H   97.632607   14.461687   52.569397
H   10.449718   45.069489   96.995827
H   18.524948    6.717050   10.915143
H   51.136467    0.930740   31.379332
H   47.062553    7.175340   22.076519
H   25.659355   19.777594   70.161163
H   96.733521   47.342079   60.615124
H   41.909298   53.251751    8.996278
H   77.366753   38.825661   35.709412
H   35.608669   80.464615    5.815707
H   98.708939   60.186615   57.337883
H   11.261183   20.274067   98.195656
H   41.589603   16.875629   94.656258
H   63.836071   78.688080   52.615936
H   56.390499   24.510511   43.620399
H   47.722801   98.152519   31.623556
H   85.215263   73.803673   85.800690
H   43.328785   96.521439   83.245361
H   42.616245    1.228688   88.343010
H   67.563194   38.412231   38.565529
H   11.181980   61.052841   56.652191
H   15.543106    6.509976   24.410421
H   97.105942    9.558807   96.320969
H   75.597343    7.917243   25.049004
H   15.403184    9.723287   40.687943
H   13.394569   58.301052   94.299202
H   72.333069   45.234905   83.147102
H   38.156593   47.009571   93.825180
H   98.507866    1.610470   67.353012
H   66.123253   14.236456   39.477951
H   37.301651   57.183556   50.335293
H   44.610569   34.896297   59.021271
H   27.555122    1.634966   13.457476
H   60.592628   46.167660    3.645773
H   84.947289   79.330444    1.445159
H   97.897972   46.512428   82.802773
H   87.700256   90.433174   95.776062
H   32.199883    2.914157   28.213627
H   40.703087   57.636124   63.749184
H   22.535715   78.371910   89.210686
H   67.934837   70.355865   35.072670
H   98.569847   32.670826   15.855301
H   92.535866   88.885124    5.574350
H   23.809477   81.348282   41.082050
H   64.891891   65.740639   70.676239
H   97.174667   45.209064   49.244377
H   60.785866   54.881672   77.200363
H   66.242691   58.548962   49.071171
H   53.587868   62.703079   50.218483
H   96.790207   54.477509   99.348267
H   44.780697   54.242767    5.032024
H   14.580279   71.929794   73.512642
H   86.181396   12.967476   38.237652
H   56.097237   97.661568   58.440964
H    1.496123   78.797897   66.323219
H   14.392282   36.657478    5.054947
H   16.216637   92.881546   25.348221
H   39.796967   26.190060   93.205032
H   87.608429    8.263641   87.428719
H   66.798172   12.400562   37.774849
H   20.661045   84.832802   17.563988
H    7.677958   96.324371   81.094627
H   27.585419   84.017525   21.327652
H   38.049301   30.030895   74.491127
H   17.251600   40.324921   10.769907
H   73.946465   49.045002    8.078873
H   14.931751    6.038041   25.212652
