100
TIME:    0.255, STEP:   255
H    0.078279   98.636604   98.912552
H   94.176903   18.570431   94.085876
H   84.145691   92.249855   20.345749
H   81.519409   22.144403   26.185495
H   92.887039   93.196899   58.791054
H   24.062115    0.936115    3.998569
H   39.605854   78.556892   10.393970
H   99.843796   10.663292   84.780846
H   47.359612   61.776184   84.035973
H   67.871849   20.047955   17.674685
H   76.535553   76.503052   15.186924
H   46.108829   36.472374   74.777992
H   27.042183   46.279602   99.784447
H   42.455845    4.291043   76.646141
H   83.604271   47.244675   38.514820
H   91.270615   89.433052   11.872456
H    3.564839   98.860664   96.572212
H    6.593894   82.299911   90.705856
H   49.235054   89.050339   76.796371
H   85.746773    0.185308   33.584633
H   49.144485   30.831375   50.320763
H   86.798805   44.436508   97.542305
H   82.339409   92.548317   25.054737
H   95.349243   39.740086   88.136230
H   20.462973   65.950920   38.441422
H   45.488987   20.012066   65.271202
H   40.089840   31.876579    5.026401
H   11.025055   68.341721   75.204391
H   16.716064   72.227623   45.117859
H   10.771714   84.528458    3.660758
H   26.132723   44.909538   89.233421
H   81.858276   45.465271   75.657463
H   88.319641   49.824974   20.769369
H   88.876305   50.353424   61.008461
H   74.433403   39.644211   40.255798
H   94.726036    4.517111   19.766912
H    4.257218   95.196632   28.558178
H   53.449303   54.287006   40.435642
H   39.256588   75.064491   17.685783
H   39.175312   88.310936   58.097870
H   17.815639   64.928246   48.347149
H    8.703232   23.301577   14.780358
H   13.437867   65.029099   19.892334
H   63.075928   17.045198    5.664486
H   34.536316   21.830818   77.928406
H   74.694679   67.997856   84.318275
H   38.772633   39.496960   29.802191
H   56.253033   98.008057   84.355911
H   72.481987   11.330677   34.301720
H   31.237951   34.630657   65.828629
H   43.525166   45.025215   56.105564
H   17.525434   40.076843   57.322815
H   14.168787   23.487305   88.060127
H   70.781265    3.041478   43.068378
H   20.458664   80.859787    2.569950
H   93.885300   12.264042   83.945999
H   12.418381   82.188927   80.240013
H    7.071496   52.805092    6.986565
H   10.388908   49.543259   91.906921
H   42.190758   47.388596   56.356773
H   75.786179   66.710556   94.514404
H   89.860687   25.571854   83.817001
H   91.529228   89.764122   16.064178
H   60.550835   43.181618   20.217039
H   42.443588   40.477810   19.308496
H   85.680397   29.596333   61.263454
H   67.109489   57.176800   79.373459
H   62.751183   32.121506   78.393074
H   69.612846   31.463646   44.239887
H   35.552277   60.970879    1.194538
H   13.934946   78.054237   59.089085
H   52.940502   43.062614   75.292213
H   90.364929    5.694347   55.210934
H   24.578209   33.242542   88.053200
H   74.465378   29.006533   20.728729
H   31.686728   23.915293   78.770859
H   90.107269    4.442426   95.544983
H   43.960693   34.046711   28.522655
H   73.776497   52.754215   20.531796
H   87.019791   95.066185   98.952789
H   15.871950   31.919722   95.229721
H   60.456875   45.892899   65.457825
H   33.930729   11.513600   54.187317
H   67.712555   33.982273   40.138741
H   39.913696   32.933540   23.032955
H   45.425297   18.419622   59.491489
H   84.185585   84.812340   35.702557
H   60.060165   84.878197   93.088036
H   60.975044   79.974373   26.114559
H   43.790169   98.794739   33.327663
H   34.458225   87.200729   38.846874
H   97.154045   14.684694   38.383102
H    1.645747   35.271889   38.642540
H   71.875130   28.699846   44.011700
H   52.183155   26.888172   21.946457
H   14.983582   85.661797   54.277885
H   42.361382   82.314400   22.523705
H    7.801486   18.408844   51.955360
H   96.564598   37.949497   23.691875
H   55.077862   72.153786   73.125839
