100
TIME:    5.640, STEP:  5640
H   35.911781    4.805384   93.982437
H   44.711555   10.486199   33.725254
H   76.706726   79.668396   57.141300
H   82.423264    0.281306   31.014893
H   44.654083   24.828295   12.782034
H   40.560986   95.097862   37.294353
H   57.376492   42.177929   31.508425
H   76.593414   76.533127   90.347557
H   14.985970   44.030441   45.069382
H   20.713972   97.365410   28.545988
H   75.635971   93.180374   96.476402
H   40.578590    6.394718   91.468102
H   84.166855   20.528641   64.602959
H   75.821907   87.691811   86.446404
H   49.102180   66.239944   79.663361
H   74.751465   18.434158   64.871796
H   70.571846   55.011845   86.819794
H   21.675436   20.395355    4.014750
H   33.113094   14.957225   60.497517
H   40.564857   86.041542    0.330083
H   29.591118   94.737000    4.165436
H    3.092636   51.571167   38.980164
H   10.441108   48.752464   70.983170
H   95.020470    4.299044   88.197769
H   27.864853   38.879890   78.192543
H   20.836020   59.928268   60.056656
H   75.735992    8.028015   11.871885
H   56.654209   19.695824   53.202934
H   33.807610   60.796848   90.566925
H   17.256096   51.249809   31.751919
H   38.024757   27.805534   63.160088
H   21.870121   96.686554   77.141014
H   67.632317   55.832924    5.892697
H   16.404758   56.850365   34.146080
H   40.576859   32.579453   68.163605
H   62.913120   27.177963    1.694473
H   20.748730   97.985474   52.875225
H   30.880970   55.741192   20.441120
H    7.004851   58.530632   97.754768
H   31.968805   84.185509   81.778282
H   49.797348   49.703629   75.221657
H   24.905651   63.720940   67.889824
H   59.821461   97.321350    8.857656
H   19.211178    7.310163   32.185547
H   67.426521    9.367606   38.740826
H    5.322020   70.491196    6.074301
H   85.797165   31.561020   79.604332
H   56.540623   53.460144   17.549124
H   29.892944   65.343933   19.491615
H   44.165554   16.575758   89.195480
H   43.114323   25.138109   12.881722
H   79.226204   40.389599    3.805380
H   25.862354   54.711365   75.307518
H   46.080818   15.179456   80.694420
H   91.729393   52.868183   48.319523
H    0.620336    6.600990    0.627890
H   53.802277   26.807152   92.398293
H    6.089833   44.259499   68.281845
H   35.091393   77.072777   78.497826
H   86.837082   61.298420    3.195564
H   15.475933   16.286228   74.656487
H   98.743294   75.445755   40.162605
H   56.961025   22.419676   46.718719
H   30.327881   72.486603   74.015472
H   56.185478   10.386322   20.797808
H   54.871819   61.891960   79.664146
H   35.061188   43.351330   39.362076
H   90.772255   40.095432   35.827213
H   37.999355   44.531898    6.500739
H   44.650558   31.817329   89.856903
H   42.937798   11.655121   94.491707
H    8.923779   64.344330   69.557266
H   39.253235   39.328247   17.137413
H    6.052853   92.463585   68.043907
H   34.098598   36.681271   28.948715
H   58.994270   69.045097   16.429365
H   79.030815   37.708324   90.794411
H   96.957779   81.935081   25.915552
H   31.971424   36.952267   80.608849
H   22.933346    1.781535   35.030121
H   21.237909   87.630051   17.078745
H   64.508194   81.047058   15.154723
H   74.618156    1.439994   67.069595
H   38.172867   94.785812   48.289616
H   77.707756   96.098915    1.017747
H   21.485477   16.219925   33.442047
H   43.837578   93.278831   92.480408
H   46.735710   53.755795   37.099716
H   72.729111   80.146263   82.062874
H   67.687775   77.231613   25.834303
H   54.834709   77.974640   52.568279
H   95.601784   19.661226   40.990685
H   46.988281   96.746590   55.154438
H   92.352180   55.345409    7.095670
H   59.079506   44.533245   45.686680
H   59.762466   73.014313   76.135513
H   14.925867   91.348885   12.827760
H   27.390825   65.523849   65.656517
H   40.036377   61.162121   72.628609
H   89.533447   33.903370   54.422291
