100
TIME:    2.394, STEP:  2394
H   55.425690    2.479395   96.954239
H   34.676826   34.543388   29.012716
H   20.905508   46.137650   95.234352
H   81.878433   34.018272    8.939245
H   73.728210   64.647171    0.794359
H   90.895027   98.614494   15.831434
H   27.501301   22.991608   77.666771
H   31.722618   95.713928   88.384712
H   94.778847   56.120071   49.393879
H    9.419359   50.757652    1.434476
H   77.570984   62.570301    9.147635
H   64.470642   43.689407   22.521299
H   90.980186   16.867271   87.184807
H   36.544365   97.696877   39.424915
H    9.619728   56.185394   35.694710
H    5.266403    2.341018   34.319107
H   31.593414   40.316048   91.321350
H   52.303406   78.280342   16.549370
H   82.551781   78.785172   89.488129
H   28.020309   54.973324   79.327309
H   22.213272   17.886784   92.266449
H   91.895462   47.262054   15.407028
H   53.780678   75.151970   63.855179
H   96.612946   65.393982   29.274597
H   43.960197   96.308411   54.225128
H   35.681858   56.273602   64.781258
H   55.642242   42.961788   47.472691
H   30.543444   68.183540   45.905361
H   63.225998   66.294380   44.006065
H   92.790535   31.588730   73.704826
H   10.276090   36.728909   19.975040
H   16.915627   86.368584   77.639503
H   38.987736   93.326271   13.467381
H   79.253166   54.326920   70.895737
H   21.263557   77.952026   70.505272
H   80.703262   72.546440   12.410256
H    9.415105   16.862535   97.103271
H   65.040611   15.137066   91.379799
H   44.022202   29.254389   12.315969
H   37.705479   88.064949   26.388750
H   71.636711   38.327168   98.746140
H   16.462128   19.301239   15.273655
H   31.861761   77.856049   74.393822
H   26.485720   52.895241   14.806964
H   48.993382   37.435513   60.972145
H   47.201672    8.578663   92.890663
H   60.434315   55.031769   48.437584
H   56.367268   20.031809   16.705040
H   35.008530   34.178188   48.977455
H   76.095238   67.186012   16.225636
H   43.361973   38.518608   78.658798
H   21.476400   41.593891   16.899723
H   58.540726   35.889954   63.831451
H   21.254498   68.149788   37.456329
H   50.174637   68.376770   20.719923
H   96.561661   10.015970   11.129395
H   48.020153   20.469429   83.676704
H   47.794525   50.804001   51.892166
H   79.086220   39.921612   27.694208
H    1.040471   11.798132   95.519539
H   10.715738   67.238106   27.740849
H   13.945362    5.660219   87.033417
H   36.616161   43.900764   69.320480
H    7.430608   54.817261   62.146854
H   27.343369   69.640137   18.509394
H   54.277992   23.260078   87.737312
H   95.492989   31.130140   82.644241
H   14.995996   54.452820   80.649643
H   76.219658   77.768761   10.084142
H   78.885559   68.555733   96.692047
H   46.012672   32.512367   33.432873
H   76.570374   72.072845   31.898794
H   50.898621   99.890923    0.361918
H   77.506218   97.881882   60.926018
H   77.595116   32.050213   82.879135
H   82.254265   61.006958   34.843967
H   84.314850   19.050550   33.389103
H   44.454800   94.182640   46.652462
H   76.312775   46.486797   44.388992
H   82.119026   78.572449   14.675849
H   57.730877   54.048687   23.072365
H   20.947601   59.862198   86.592384
H   69.270828   47.216003   57.916538
H   14.855229   17.019258   44.764374
H   35.762085   99.137207   15.680854
H   96.190857   96.989449    8.029838
H   27.044577   29.289627   37.698547
H   94.493835   13.624935   70.850044
H    5.364215   60.877983    8.613859
H   54.677372   10.778442    9.798377
H   21.994995    2.701430   84.018631
H   55.421955   75.553032   79.138390
H   38.887180   99.366684    4.121273
H   78.617287   58.447750   88.233650
H   15.199970   35.289848   71.098442
H   91.656143    1.195497   43.795837
H   72.577957    5.067346   99.508141
H   15.655086   36.621155   17.730438
H   94.668968   47.169888   44.515831
H   87.916794   17.211407   67.109283
