100
TIME:    2.106, STEP:  2106
H   74.902252   28.890305   97.217911
H   42.688057   18.928343   10.845881
H   15.955069   25.417782   98.613747
H   81.830093   45.883507   24.725746
H   76.307800   41.562702    8.602892
H   95.359871   98.926506   87.310020
H   42.594646    3.543898   55.144798
H   54.358849   70.796936   14.827532
H    1.858457   83.810013   67.523094
H   17.288866   46.622398   90.157860
H    4.360031   50.981922   36.889019
H   75.461365   29.253374   43.021278
H    9.300261   34.291588   15.809929
H   50.804619   98.584572   17.507191
H    6.116335   81.910980   49.539680
H   16.847027   27.530769   58.225357
H   54.748199   21.270149   65.099182
H   46.148865   92.285713   26.534843
H   78.064964   66.704605   74.313812
H   35.778854   61.088314   59.718910
H   39.303604   46.558903    0.084303
H   64.284622   46.879730   39.932907
H   57.625893   77.494255   72.094925
H   23.371330   61.939884   50.664978
H   54.260979   19.149345   52.100372
H   37.002415   64.854141   91.776863
H   80.476479   54.934689   41.757603
H   54.843071   54.740673   36.384609
H   56.963791   40.164497   57.620323
H   81.747078   38.716660   50.809322
H   98.945808   10.901350   42.763462
H   98.731445   94.327080    4.301102
H   18.701103   14.397396   87.522064
H   67.084709   80.720474   83.029037
H   28.423347   99.722534   52.968079
H   55.663219   49.922024   13.400125
H   81.791534   27.410509   74.409912
H   76.945396   20.408306   71.055092
H   56.179672   35.529297   40.224861
H   64.830788   15.026319    3.729448
H   91.319817   28.445669   91.960983
H   42.345917    6.375100    1.743546
H   29.381048   76.128998   53.591209
H   44.876503   48.067848   86.647385
H   73.974968   48.797573   36.326965
H   50.917248    3.085499   91.721718
H   58.182117   39.369659   45.671227
H   56.351887   17.066599   98.885307
H   26.590803   58.029507   60.466957
H   70.057152   62.804066   36.367970
H   43.383945   66.322807   75.622177
H    7.480917   68.318878   35.807194
H   52.566360   34.220032   80.557060
H   27.923199   72.847542   24.747972
H   73.102234   43.128368   18.276564
H   96.201309   10.318644   20.933594
H   29.763071   28.779488   56.285591
H   69.239838   78.001755   59.310135
H   56.371628   27.752771   49.805077
H   20.044971   89.661713    3.710743
H   92.548416   80.632637   50.194706
H   24.165943    8.341433    0.063213
H   17.081112   63.539925   89.078293
H   87.654724   53.250610   69.965248
H   15.912093   92.641113   91.688812
H   71.970375   37.577461   70.708504
H   18.600298   21.173231   68.739944
H   34.890068   37.982117   66.881577
H   61.866791   98.462608   28.147682
H   73.049622   54.069855   97.298492
H   55.157692   52.107582   36.889172
H    0.318399   81.630951   10.812735
H   69.676453   14.135815    7.746861
H   83.843132   16.107336   78.042717
H   63.708443   31.640287   61.047100
H   75.447136   42.547729   54.221653
H   58.166901   44.013115   28.295042
H   30.924038   13.014055   30.746456
H   62.500999   47.332745   41.174393
H   96.243050   94.256531   39.487343
H   52.094891   51.069195    5.859761
H   99.337967   57.981339   10.674883
H   51.049541   42.408386   30.485874
H   95.043343   92.374733   71.070038
H   49.785034   17.152031   43.599304
H    2.818632   86.411812   88.030190
H    7.809713   50.229568   23.965635
H   89.857605   36.682983   73.847115
H   99.386909   76.913628   10.969877
H   80.140091   22.628296   99.503395
H   10.208862   87.149399   77.936600
H   34.110676   53.895756   73.649620
H   20.408867   90.735825   81.840897
H   50.781284   40.977291   68.814217
H   20.180073   61.087944   64.480278
H   67.868546   12.567989   58.671326
H   95.438309   88.539650   16.071564
H   14.597651   34.169006   22.339203
H    8.388359   45.928432   68.640030
H   70.031052   24.608501   94.847565
