100
TIME:    3.467, STEP:  3467
H   82.863434    4.079820   95.971878
H    4.828772   92.719666   96.697372
H   39.349335   23.333626   82.643761
H   82.058533   89.809074   50.125813
H   64.117447   50.652843   71.700165
H   74.260384   97.452034   22.094378
H   71.263588   95.445351   61.576851
H   47.386932   88.541672   89.865303
H   68.402458   52.955505   81.852043
H   80.097206   66.164345   43.454826
H   77.763138    5.744883    5.790850
H   23.514473   97.473663   46.143867
H   22.726875   51.949112   80.537102
H   83.415627   94.389595   21.080021
H   22.672848   60.340836   84.117134
H   62.123978    8.492603   45.250343
H   45.311684   11.286588   89.003036
H   75.229332   26.100609   79.348816
H   99.268288   23.797823   46.016445
H   99.114098   32.190739   52.382103
H   58.540024   11.066040   63.139694
H   94.765015   48.686478   24.031174
H   39.454582   66.425331   33.156403
H   96.919609   78.262909   49.584599
H    5.584897   11.208298   62.144386
H   30.760836   24.304956   64.208061
H   63.116619   98.357071   68.763527
H   40.006435   18.267532   81.372765
H   86.557068   63.645309   93.285957
H   33.932648    5.031396   59.005035
H   52.504719   32.948376   35.080940
H   84.665779   56.719673   78.306511
H   14.567919   14.820164   10.131696
H   24.590626   55.992867   25.691338
H   94.590179   96.841362   35.844162
H   73.999092   56.837040    8.719438
H   12.329762   77.566391   81.651421
H   20.695015   95.500298   67.096855
H   98.727997    5.878294    8.334429
H   36.640919   87.614319   10.810198
H   98.307434   75.143616   24.026716
H   20.026970   67.460892   65.683807
H   41.104137   84.290512   51.898029
H   57.967514   70.877502   19.719164
H   55.918308   95.102264   52.791561
H   33.358570   29.044514   97.245796
H   68.820602   13.384828   58.744186
H   56.424572   31.079275   83.096260
H   66.371017   45.312080    6.173081
H   98.591301   83.509575   41.177448
H   43.280109   34.927414   89.972321
H   73.622559   42.027626   46.460537
H   80.793205   42.111572    1.510827
H   96.407768   50.641144   84.806122
H   64.745590   62.423660   29.835272
H   97.904221    8.887579   74.601944
H   16.045259   89.507698   85.727928
H   67.896233   49.472427   24.253933
H   63.710472   85.257568   45.320019
H   30.232635   94.272507   65.000862
H   78.401527   17.341206   44.080730
H   75.864006   95.671738   38.484116
H    9.434491   70.701225   95.727867
H   81.112602   60.654121   33.011669
H   69.935310   83.940651   18.435789
H   88.361977   69.918007   51.179901
H    9.404358   68.223480   34.449810
H   40.876457   15.818580   31.945250
H   29.696884    0.669825   42.788898
H    0.628348   22.522257   94.432617
H   11.938957   59.505211   20.559399
H   88.097153   36.462265   10.458819
H   80.936371   46.813343   72.855705
H   53.891857   29.980392   97.157280
H   29.329992   33.581059   64.220131
H    7.617621   29.774462   62.643101
H   81.736397   26.049793   52.365040
H   94.866287   24.021505    5.908267
H   27.768209   43.335056   56.365608
H   29.497231   20.133038   22.235947
H   78.723099   65.149368   87.203583
H    1.456568   66.869705   96.868652
H   37.155979   65.127716   60.114506
H   88.674164    8.837452   46.759468
H   83.514862   32.021687   11.665590
H   71.500854   36.402771   82.542130
H   98.707802   51.273781   88.863174
H   11.764227   27.717789   59.687042
H   27.634315    1.135702   99.835213
H   59.810032   66.635696   48.153419
H   65.906525   60.638149    6.678506
H   34.816315   56.242920   99.587868
H    7.695924   31.544287   87.112877
H   82.326637   23.531425   60.579376
H   96.646782   39.177174   95.755699
H   80.281555   58.823067   88.373726
H   87.408447   66.644630   37.799507
H   19.592894   45.757111    0.561409
H   43.553459   51.795170   54.640083
H   54.558529   89.665077   63.753609
