100
TIME:    6.388, STEP:  6388
H   85.328201   36.209953   93.297623
H   24.054085   51.021313   80.889809
H   89.569824   33.481728   48.358555
H   82.548813   69.464630   90.014648
H   37.954315   84.783798   92.501068
H   28.959087   94.287498   11.370960
H   18.175564   92.685463   90.002998
H   17.802094   41.244747   21.668560
H   96.598640   72.113205   97.984383
H    0.280410    8.106161   57.833775
H    6.058823   23.277365   24.425343
H   12.027534   43.887943   38.223778
H   36.435287   75.295341   90.277763
H   38.784859   85.386269   43.370220
H   58.194649   99.425194   43.703213
H   44.676697   53.011208    2.780853
H   10.422177    4.488250   54.913185
H   37.671558   83.999084   78.083534
H   44.760647   46.338844   99.908081
H   20.414192   70.153847   51.257347
H   85.203751   20.271488   83.861290
H   74.804123   52.564148   75.281082
H    0.453239   42.669029   49.582718
H   25.520321   13.247286   32.644680
H    1.113527   79.559799   83.716713
H   17.426214   37.814468   89.718452
H   11.234135   76.936478   26.714842
H   93.541183   54.609947   77.927231
H   50.071953   28.661072   55.207672
H   45.936939   32.736992   91.216629
H   67.465401   94.880211    3.980754
H   69.099487   76.016571    7.894861
H   20.318905    1.106360   73.278442
H   48.010353   88.300705    2.635756
H   21.976624   76.008827   13.701360
H   27.935293   85.764076   99.342415
H   92.491463   70.592896   11.814652
H   99.966072   42.050610   73.224190
H   75.433838   42.232048   25.267424
H   61.514332   14.159859   40.629063
H   98.677628   75.369576   92.844215
H   61.868134   66.653687    6.079104
H   66.262421    1.807534   62.884842
H   71.447281   19.865133    5.320974
H    2.544460   79.853500    2.748275
H   95.667992   84.758163    9.113165
H   91.640915   72.239029   86.783470
H   56.580570   61.164307   63.831165
H   51.755646    3.396587   89.653946
H   59.857708   27.961866   36.882805
H   43.062962   52.923492   20.766212
H   15.579245   70.981430   54.703773
H   41.379108   59.048523   31.863241
H   28.760719    2.974065   13.701304
H   32.173363   18.418461   54.682590
H    1.552006    5.814167   75.164200
H    1.224337    5.223371   63.539406
H   50.391754   73.619667   49.015732
H   94.085358    8.678138   21.076134
H   37.476440   18.790646   81.920677
H   62.660633   81.499649   16.337788
H   72.195320   68.483475    6.316024
H    7.741324   71.377357   95.426117
H   81.692612   76.561249   53.707829
H   85.873688   50.645802   90.455315
H    8.922203   24.706535   23.892256
H   75.047165   69.209930   75.474625
H   39.103004   82.873512   71.585938
H   75.280067   90.785400   59.589794
H   59.802078   69.441338   88.281830
H   19.184608   60.761673   85.520638
H   47.246929   39.519806   24.320889
H   90.481247    2.331146   97.957581
H   89.585075   45.122356   23.599989
H   70.160759   37.748440   85.651505
H   76.675514   16.983234   66.096802
H   46.949795   72.903709    4.033679
H   32.100185   33.024300   67.226540
H   67.839195   34.755154   88.952171
H   86.251816   61.035133   70.589287
H   35.875816   95.368454   61.784763
H   20.647730   85.897964   52.583813
H   21.929947   13.948146   38.304474
H   89.633812   58.794212   79.971733
H   41.287041   49.312881   28.507324
H    4.268256   43.696465   85.385223
H   93.794792   38.893150   28.147955
H   58.765617   93.899414   29.344193
H   88.251572   38.498131   75.945198
H    1.553151   46.457363   52.571259
H   85.445915   18.365875   68.364670
H   50.946209   75.918106   55.240532
H   94.936707   19.190502   12.998424
H   64.641731    0.725760   57.532013
H   46.147926   77.531845   62.875523
H   21.544235   43.475983   37.500565
H   55.552818   34.273743   69.809570
H   25.947008    2.537842   50.641335
H    4.403591   64.387138    9.974579
H   35.994152   14.708874   82.364342
