100
TIME:    9.789, STEP:  9789
H   55.331696   24.323723   90.183914
H   30.127258   35.315914   95.332329
H   48.034771   78.163979    8.431673
H   83.119659   29.344534    3.593378
H    7.481428   57.388504    0.286773
H   76.221313   90.602943   48.183617
H   39.928440   22.338037   55.965725
H   50.490204   35.474651    9.399643
H   12.995567   45.119568   83.905098
H    7.384630   56.940540   90.999672
H   89.706024   60.122726   96.821053
H   82.222618   14.362303   96.137810
H   19.537750   69.472603   52.303421
H   70.388855   74.903450    2.186356
H   99.503181   95.631104   80.146507
H    7.927816   55.547226   20.468281
H   36.933937   29.437111   64.519638
H   10.399177   18.505959   60.189880
H   97.736160   89.013260   79.090485
H   28.783123   97.933075   82.813255
H   83.383087   81.692390   91.552231
H    0.861313   57.079025   85.654526
H   55.044945   15.016659   52.276123
H    9.518253   53.933075   80.058502
H   79.473984    9.843208    8.829594
H    1.448631   37.523788   69.694145
H   17.962193   35.559490   94.192856
H    6.574724   13.357137   90.344109
H   24.023663   37.226353   94.441391
H   76.346992   48.561844   61.585945
H    1.313198   99.854889   34.904572
H   83.840836   82.051315   93.047340
H   59.882652   52.272354   79.667381
H   91.710175   76.619286   59.356224
H   37.334709   18.505287   20.623312
H   23.578161   52.151325   88.652016
H   18.691807   46.041267   79.800308
H   59.392551   79.812370   13.224288
H   31.875072   68.131371   95.685997
H   41.179005   95.768936    8.212388
H   66.242645   92.067703   72.969078
H   75.250069   79.994003   79.699211
H   95.531281   22.210953    8.542988
H   54.291355   76.957253   37.849430
H    7.516663   45.656132   93.775650
H   51.771935   49.621014   22.930246
H   18.224369   57.201252   19.436380
H   56.785091   96.193527   74.265030
H   51.170433   21.725613   53.988228
H   31.254004   79.736168   99.085518
H   45.788700   24.801186   52.073975
H   80.874237   55.393211   31.449347
H   11.916142   78.768677   34.342323
H   49.997993   47.489380   63.777718
H   61.380196   16.465734   83.596542
H    5.787947    2.236646   59.386124
H   16.832718    7.088820   87.002739
H   97.147171   52.436974   61.413109
H   62.318417   52.392189   59.984592
H   13.046572   80.203506   85.188148
H   77.201935   23.337748   51.175266
H   51.487175   36.827438   52.435341
H   38.652302   39.325912   62.221664
H   15.232782   95.087814   61.371391
H   20.864407   79.012032    7.175257
H   99.996460   55.633385   24.986933
H    2.178203   86.793060   39.675671
H    4.172494   77.380562   34.173416
H   44.785263   46.411224   46.284496
H   28.834473   40.319874   81.081314
H   11.178799   29.352886   44.731056
H   67.165764   26.567772   73.574615
H   68.731277   34.106258   10.757771
H   14.717472   29.874813   21.524302
H   34.015984   42.729031   43.510090
H   57.078461   34.955647   37.253876
H   55.832954   78.537766   64.355827
H   91.877052   10.650734   55.061134
H   30.931562   24.765339   26.903215
H   19.463799   75.765846   77.590187
H    2.451433   30.554056   65.058632
H   75.853844    7.961585   68.055077
H   37.049103   70.824989   62.198879
H   23.617039   49.825394   69.342705
H   75.688934   36.559059   98.820633
H   25.996540   68.622261   21.561253
H   20.940096   91.611794   90.320396
H   13.461884   21.751928   94.085739
H   58.834476   49.136116   48.129402
H    0.859246    6.528786   74.148239
H   24.629538    2.008568   40.187889
H    2.585771   31.705366   20.046335
H   12.947192   21.233091   76.002983
H   90.372231    6.835476   91.402550
H   87.344086   72.891243   41.025612
H    2.452846    9.175705   61.834335
H   85.597771   29.448349   74.213593
H   19.382273   70.818954   82.360497
H   42.387535   79.073463   25.106083
H   47.243134   27.433918   54.735210
