100
TIME:    1.379, STEP:  1379
H   24.066038   95.560074   97.883499
H   62.910851   79.512947   64.987144
H    3.458663   73.114952    7.148078
H   81.708069   75.834984   64.577263
H   82.819473   83.290459   28.313942
H    6.632450   99.714119   15.312424
H   80.696465   54.455334   98.292366
H   11.499619    7.903604   81.579018
H   19.729546   53.708191   13.283500
H   37.154625   36.183754   61.692413
H   71.983810   21.729313    6.917570
H    3.205916   92.813011   94.770775
H   55.543175   78.275887   88.067558
H   86.801857    0.825585   62.183788
H   97.273521   46.847843   84.485367
H   46.078049   91.118645   18.571762
H   13.197794   73.192459   98.910484
H   30.612923   27.640060   51.739059
H   66.738869   36.204506   36.013256
H   55.363792   76.528915   10.221323
H   82.444824   18.933281   19.816212
H   94.575249   45.920059    1.835076
H   67.332390   83.406898   92.894562
H   90.917458   53.220676    4.657055
H   80.263298   76.807167   46.736839
H   40.335903   86.519043   59.918182
H   43.166229   85.154068   27.330976
H   16.185928   20.806759   12.354442
H   41.156067   74.205719   91.986870
H   53.870022   56.709732   93.015526
H   70.347694   45.706528    0.290421
H   52.828037   14.413495   71.603142
H   67.493729   67.588081   22.028166
H   36.367805   47.345558   13.656439
H   46.494621   54.678352    8.700905
H   92.453125   92.811172   15.899333
H   12.063401   54.034523   17.124945
H    6.995731   33.714527   19.754108
H   88.725601   51.070412    9.955779
H   33.307320   83.086052   46.531338
H   41.001411    3.500097   74.833176
H    7.684532   73.749229   67.587860
H   23.118971   71.769394    1.080505
H   91.301292   35.882034   15.565684
H   37.037598   77.481491   74.114822
H   60.296497   89.219093   88.770943
H   50.641041    0.128797   39.406685
H   56.313061    9.581503   53.902630
H    5.341807   18.240898   89.465103
H   54.811832   51.738659   87.215904
H   43.439411   36.510353   67.956818
H   72.149849   35.777966   83.533157
H   37.485237   30.004639   22.779072
H   44.757038   84.706108   92.668716
H   30.977760   79.395844   12.107903
H   95.291672   11.082684   45.682388
H   83.674179   49.756615   87.141747
H   23.374496   46.658363   78.035355
H   99.036613   97.034042    5.616360
H   68.017715   33.782566   24.387535
H   46.689373   14.442746    6.878782
H   49.967743   15.109634   32.959412
H   67.770721   13.115788   38.953468
H   37.732674   49.295906   89.699944
H   87.057167   50.706211   23.984434
H   16.630959   73.718910   27.722593
H   76.928665   96.039185   33.641247
H   85.108711   96.403000   32.126774
H   25.631050   50.700180   73.744850
H   58.320068   17.502420   98.829346
H   78.242516    1.573175   45.608494
H   60.261288    5.758863   57.586540
H   17.078350   50.094227   26.388882
H   99.839439   62.115173   21.250526
H   28.659405   30.605852    5.935096
H   58.262012   95.953270    3.141049
H   92.159111    7.024171   15.434931
H   96.768250   60.552597   90.596588
H   27.651651   49.462742   33.065163
H   31.896866   33.850471    2.119180
H   37.867939   43.548046   62.408154
H   44.791050   53.233475   71.466263
H    5.051420   30.272886   61.242802
H   45.033367   30.164408   37.473579
H   85.183243   62.628357   14.073761
H   19.552418   59.709736   37.545311
H   59.255013    3.088396   89.299057
H   78.154343   94.888687   81.408287
H   84.300240   17.391817   16.917400
H   44.416519   52.540947   73.512169
H   80.456886   47.893055   62.583691
H   80.318993   99.220497   59.795975
H   73.763405   68.948898   25.598364
H   80.513588   96.878822   19.797947
H   32.751209   26.207077   47.774010
H    7.821378   41.275322   96.221603
H   53.143661   46.818356   57.881607
H   11.928365   27.979034   33.972664
H   43.019554   42.794621   29.538761
H   24.881973   43.282703   64.868477
