100
TIME:    6.290, STEP:  6290
H   91.955643   45.197075   93.387344
H   26.760315   45.710537   74.710976
H   87.884552   26.431393   49.509235
H   82.532364   73.502106   95.385986
H   38.832092   76.928665   95.158325
H   30.479122   94.393669    1.665680
H   23.311756   86.068489   82.339272
H   25.504700   32.766796   30.666897
H   99.007668   81.535477    4.153123
H    2.957468    6.698925   53.996677
H   15.174545   19.334097   33.865112
H   15.768181   38.975681   45.199638
H   42.688889   81.221458    0.015557
H   43.637306   85.688332   35.912106
H   57.004341    8.179016   48.415844
H   48.616974   61.582619   10.915866
H   18.302864   98.006264   45.991859
H   35.575809   88.767792   81.480995
H   43.234631   42.227348   94.744598
H   23.054253   72.235390   44.585045
H   91.019211   30.027973   86.521538
H   65.408768   52.434052   83.626694
H    1.761802   43.466057   52.386520
H   34.626057   12.074923   39.923351
H    4.618434   87.331192   82.992958
H   17.872953   40.711731   98.934364
H   19.684795   81.009842   24.770124
H    1.810407   50.035637   74.688278
H   47.941063   19.770027   59.840302
H   42.179096   35.162468   83.425797
H   63.608788   86.091972   11.734154
H   62.911686   78.724670   16.967216
H   13.415873    8.276331   64.449829
H   43.869698   97.281845    6.764153
H   24.415558   83.428810    7.738790
H   19.416594   78.088387   99.650459
H   83.091621   74.181763    4.092793
H    4.016483   43.844296   66.308144
H   79.570007   44.367424   34.764198
H   70.744995   23.334312   32.918232
H    5.375124   72.006508   90.535378
H   70.127014   66.269379    1.076070
H   65.419037    1.219647   55.806549
H   77.705368   18.220236   95.738976
H   11.045216   83.720505   94.362167
H   96.933067   82.888962    8.715025
H   90.875290   66.909561   85.842888
H   56.575336   60.154938   57.767475
H   48.891281   11.512711   93.562820
H   57.800838   26.469870   43.735298
H   43.069691   62.384644   19.733292
H   10.815584   80.074722   61.136818
H   39.346165   58.480286   37.555325
H   31.029930    4.573167    9.377093
H   39.976158    9.830092   53.848927
H    1.429947    5.917253   78.500351
H   95.011223    8.051286   54.218819
H   57.689117   82.874458   51.539902
H   86.355835    4.536922   28.599297
H   43.943130   11.257764   84.708031
H   56.478809   86.057510   23.978336
H   75.673531   69.395645   10.750367
H    1.088014   78.064613    2.146271
H   74.963486   76.027405   56.368824
H   81.984253   58.473270   81.329124
H   14.942154   29.578423   18.097731
H   82.909775   65.821442   70.743301
H   45.872505   77.268898   66.900970
H   70.396217   97.827057   65.736267
H   57.816986   64.512627   88.488190
H   22.296829   67.429489   86.695992
H   55.327114   42.772217   17.145771
H   96.870926    7.178360    0.469922
H   91.742882   51.324368   29.422552
H   65.435417   37.608624   78.222549
H   74.359200   10.702343   72.691345
H   38.049404   81.385399    2.295601
H   27.495968   39.432671   61.814522
H   63.139408   35.043011   87.859062
H   91.057907   66.373573   79.032097
H   33.958015   94.354599   55.927433
H   13.293985   85.262436   60.782131
H   15.730927   12.309417   28.971176
H   82.891228   50.408226   88.922966
H   46.058739   55.443115   38.007355
H    6.523915   40.096382   78.579834
H   87.249596   46.018547   23.474951
H   57.189507    1.741171   30.360291
H   86.217880   43.954704   76.746712
H   10.217822   50.489605   49.068375
H   81.435356   13.074165   66.295090
H   43.695202   68.547470   53.373573
H   88.654694   16.249874    5.419932
H   55.170811   94.780220   50.924011
H   47.842171   86.309616   60.623508
H   13.449843   47.345978   42.562363
H   63.331688   28.649912   75.445587
H   26.136171   97.688614   52.608482
H    9.071994   63.964016   18.183365
H   29.907282   17.223698   91.804558
