100
TIME:    2.677, STEP:  2677
H   36.287262   76.526817   96.695145
H   26.804680   49.888245   46.864307
H   25.770002   66.498138   91.913628
H   81.925934   22.358137   93.427307
H   71.193405   87.330872   93.120911
H   86.507698   98.307899   43.858334
H   12.669357   42.101967   99.797737
H    9.479378   20.196840   62.401745
H   87.822166   28.910858   31.579018
H    1.686476   54.821114   12.517100
H   51.247009   73.957489   81.886978
H   53.668663   57.874817    2.377738
H   72.977455   99.744980   59.056190
H   22.531685   96.824593   60.962124
H   13.062443   30.906481   22.090891
H   93.887436   77.588837   10.826921
H    8.838731   59.032143   17.086222
H   58.351097   64.518120    6.737255
H   86.960701   90.656006    4.398413
H   20.396461   48.964497   98.595284
H    5.419689   89.713287   84.584305
H   19.026947   47.637741   91.307022
H   50.002220   72.850349   55.758484
H   70.319199   68.788116    8.255776
H   33.838249   73.862213   56.312996
H   34.384228   47.842243   38.256424
H   31.237759   31.196825   53.088558
H    6.664883   81.393028   55.260822
H   69.379486   91.970619   30.628279
H    3.642044   24.584549   96.202843
H   21.411310   62.106350   97.583229
H   34.784492   78.548256   51.440758
H   58.922878   72.620323   38.962257
H   91.210365   28.391586   58.973083
H   14.228206   56.559479   87.739357
H    5.308794   94.776726   11.437573
H   36.558281    6.497686   19.402281
H   53.344475    9.957340   11.350624
H   32.075798   23.089025   84.891266
H   11.050310   61.572365   48.655468
H   52.296635   48.036724    5.414650
H   91.027641   32.003334   28.568457
H   34.299404   79.553116   94.836357
H    8.414976   57.638824   42.476738
H   24.446028   26.270710   85.188820
H   43.550602   13.976460   94.039314
H   62.647411   70.421967   51.155914
H   56.382381   22.945539   34.215492
H   43.280113   10.740955   37.687424
H   82.028496   71.491295   96.432526
H   43.340382   11.196299   81.642700
H   35.229160   15.333218   98.320793
H   64.411217   37.530884   47.394081
H   14.701572   63.533371   49.944672
H   27.644234   93.185043   23.120863
H   96.915756    9.718552    1.495407
H   65.960503   12.303397   10.592474
H   26.721527   24.078110   44.602982
H    1.407066   51.878811    5.968077
H   82.364197   33.551250   87.470345
H   28.568251   54.077747    5.676562
H    3.902222    3.025555   74.229843
H   55.812885   24.602148   49.905685
H   26.863764   56.356712   54.462551
H   38.576817   47.036861   44.865204
H   36.892769    9.191261    4.470339
H   72.787697   40.913204   96.307144
H   95.446922   70.637573   94.178680
H   90.323021   57.434181   92.335243
H   84.620178   82.788643   96.096130
H   37.026421   13.256373   30.037205
H   53.235619   62.680679   52.619850
H   32.446793   85.891197   93.107170
H   71.279320   79.974152   44.106483
H   91.240746   32.453968    4.332306
H   88.943214   79.143913   15.801786
H   10.008848   94.522110   38.393940
H   57.750652   75.678993   62.282322
H   89.884995   45.655537   47.547783
H   68.240211   63.160542   90.295334
H   63.269016   56.976452   39.986332
H   42.182533   61.710403   62.928444
H   87.174240   51.940155   84.870972
H   34.323971   41.235931   18.915405
H   21.981804   81.436752   88.247383
H   89.678955    7.384254   27.682354
H   45.945503    8.713226   51.193039
H   99.049576   90.967453   67.905006
H   11.237696   45.120735    6.298546
H   29.655449   99.134476   19.914597
H   33.576508   17.982510   89.995071
H   76.361969   96.833305   84.531868
H   57.045368    7.846256   26.015522
H    5.969390   75.613441    7.315433
H   10.306328    9.939636   77.601707
H   15.030852   90.019966   29.178604
H   50.114487   21.307873   83.232704
H   16.693800   39.030731   13.202021
H   81.187431   48.389790   20.810867
H    5.492050    9.942284   39.852570
