100
TIME:    7.423, STEP:  7423
H   15.335226   41.296028   92.350052
H   95.472153    7.104412   46.149586
H    7.365499    7.944602   36.205959
H   82.722534   26.823463   33.282467
H   28.682501   67.743523   64.437180
H   12.906039   93.166206   13.870350
H   63.928905   62.575535   70.941422
H   36.453133   30.785755   26.638428
H   71.156364   72.602173   32.835110
H   72.011177   22.968279   98.358223
H    9.785645   64.923096   24.728907
H   72.527252   95.767441   64.551781
H   70.409630   12.681623   87.429268
H   87.538948   82.196114   22.133411
H   70.765755    6.973869   93.930939
H    3.059905   62.486267   16.866980
H   27.193703   72.943710   49.133327
H   59.805233   33.635696   42.206985
H   60.877247   89.756592   54.433010
H   92.529800   48.175892   21.724924
H   23.785370   17.233871   55.768131
H   74.030579   53.938126   87.141281
H   86.634453   34.251442   19.969526
H   29.353868   25.628878   55.778023
H   64.095161   97.478210   91.360451
H   12.607250    7.272465   92.345116
H   21.984968   33.911240   47.253437
H    6.211022    2.920245   12.136636
H   72.576759   22.564566    6.283475
H   85.624359    7.120310   73.495903
H    8.196305   87.690414   22.094872
H   34.449917   47.420307   12.079735
H   93.222786   25.380053   66.519417
H   91.740746   93.449135   59.031906
H   96.217552   97.644798   76.673676
H   17.906445   66.830002   96.089088
H   91.761398   32.690063   93.368805
H   57.184509   23.107090   46.261215
H   31.744991   19.682020   24.968266
H   64.028801   17.266672   22.060320
H   27.941694   10.885449   17.227140
H   74.643898   70.712448   58.915974
H   75.169586    8.016264   37.644512
H    5.360946   37.237267    6.517481
H   12.765907   39.018032   91.315865
H   82.307243    4.498470   13.318010
H   99.726852   28.526619   96.717171
H   56.640682   71.824478   27.870693
H   82.011543   17.677586   48.368454
H   81.587158   43.716244   64.517372
H   42.991894   53.000946   31.675121
H   65.886383   74.940002   86.762939
H   62.849483   65.049805   71.753548
H    4.795074   86.090454   59.372635
H   49.764847    9.120749   63.487103
H    2.841097    4.725448   39.930359
H   66.836502   75.358818   61.976524
H   73.323898   75.876518   22.355978
H   75.710503   52.416096   41.622002
H   69.176247   98.343704   52.482811
H   27.949472   33.368080   35.640335
H   35.461159   58.849838   59.488571
H   78.008659    0.750422   24.453064
H   52.764614   82.199295   25.604458
H   26.953663   67.982635   86.840370
H   45.340729   73.254051   85.089539
H   92.006927    4.995824   25.445082
H   67.608345   42.067131   21.064926
H   26.863121   16.416885   94.674408
H   80.782036   21.483095   86.099533
H   86.318153   90.340927   73.107460
H   62.000439    5.126647    0.149839
H   22.997885   51.139721   71.425598
H   66.795998   79.617249   62.104034
H   20.044512   39.245159   64.118546
H    1.138936   83.317894   96.456154
H   40.949909   83.321114   22.389128
H   80.726364   65.349876   24.383768
H   17.473852   31.715031    0.497004
H   35.493607    4.653095   81.423164
H   56.132408    6.076699   23.645462
H   98.313118   92.609924   65.995049
H   87.396370   31.256872   36.872337
H   60.838779   47.361568   85.440849
H   90.891357   84.567772   28.175817
H   80.451401   81.714066   57.258881
H   62.920170   63.639900   77.500603
H   75.411278   11.077677   18.612953
H    9.731263   80.871712   67.480232
H   10.045463    3.871952   89.571457
H   27.802479   74.251274   90.221970
H   27.525728   53.759735   74.962288
H   61.282093   50.247135   93.036568
H   64.669594   63.517662   27.320261
H   28.253803   84.822464   86.659546
H    7.030994    2.606402   84.041191
H   73.399590   93.670639   10.285079
H   23.949213   53.748325   29.865438
H   55.098412   68.856514   23.283039
H    0.283369   88.147781   82.659286
