200
TIME:    0.758, STEP:   758
H   25.388144   60.755863   24.197056
H   32.581116   40.440369   10.926255
H    7.280868   91.810928   70.862480
H   35.303360   83.028267   30.954124
H    9.710404   96.857880   46.210907
H   72.767151   38.755661   50.217346
H   10.864120   54.936592   59.677654
H   14.496716   11.253882    6.685760
H    8.464621   79.740494   35.082813
H   92.626633   67.642921   75.640480
H   30.248613    5.659571    9.330956
H   32.919800   55.849007   37.423950
H   23.887844    4.199618   40.061394
H   79.920525   55.392406   67.226799
H   94.612930   75.932182   41.704063
H   14.201731    4.623447   43.148651
H    8.574929   31.979000   90.281960
H   24.262119    8.069232   34.298313
H   82.260208   10.948696   50.109268
H   91.704247   72.591026   17.390476
H   64.301613    2.616285    2.108835
H   78.497017   68.614021   50.613007
H   79.493507   58.775177   36.707085
H   19.580044   92.781853   89.961800
H   25.761383   33.537155   26.926723
H   18.232298   85.325073   89.848228
H    8.927159   69.190590   69.909042
H    6.398541   91.498039    2.094278
H   32.885754   40.784859   35.305183
H   69.641571   34.641087   80.707413
H   12.685202   73.090553   16.828125
H   22.506397   75.646957    6.356647
H   14.607231   20.131552   79.506348
H   79.282661   64.143059   47.344391
H   23.129839   68.396835   30.278486
H   16.140656   38.111320   85.416374
H    1.131945   63.248718   89.843727
H    7.292735   58.154659   91.877487
H   33.898972   27.852001   55.945862
H   85.115051   37.558346   43.462006
H   80.658440   81.025726   18.717896
H   39.122330   32.244743   24.471104
H   67.375076   75.882378   69.562798
H   36.127274   88.392494   37.274166
H   46.475975   92.099304   63.056999
H   33.770279    0.357614   48.321491
H   89.735657    0.834018    7.535976
H   77.504906   65.542702   29.025711
H    7.113277    9.094957   61.539799
H   43.580418   20.139128   83.798111
H   65.885818   63.939705    7.340132
H    1.336853   44.613750   74.678535
H   66.148155   79.608406   14.697578
H   14.697094   93.115005   89.374046
H   55.273056   64.864777   74.020714
H   98.665459   59.588280   95.610321
H    3.952183   18.705666   44.098042
H   73.067978   70.621216   95.953636
H   17.250845   84.483994   19.654758
H   31.122723   93.080482   57.418472
H   48.741882    5.270086   27.101898
H   99.246513   17.651987   53.037315
H   85.718079   35.936844   67.409058
H   36.677055   65.891365   15.233017
H   79.675293   83.801331   39.111805
H   18.419695   36.685600   42.174271
H   66.826027   12.235452   96.537209
H   94.440636   92.627632   97.527061
H   34.947662   12.853274   55.423393
H   42.255161   50.658390   50.954929
H   58.237923   85.551376   87.137146
H   17.582222   10.206325   41.138844
H   93.934219   34.618389   82.150314
H   24.741266   97.578743   75.653114
H   85.452469    9.256793   43.256378
H   66.406822    0.788915   59.492561
H   93.238159   49.234108   64.818520
H    7.369355   15.402437   30.254555
H   15.469679   52.770348   23.462236
H   60.469944   87.778015   69.695831
H   65.353218   21.347322   93.443237
H   49.413731   59.274319   71.843620
H    8.978745   19.348326   75.123695
H    7.782121   78.797981   10.734179
H   20.462135    4.801493   43.102394
H   39.260567   67.650330   16.999718
H   59.071396    3.863506    2.958896
H   71.023781   99.265015   30.980019
H   81.540909   73.317993   79.036255
H   20.849625    9.265900   49.166683
H   19.528980   39.364513   78.450455
H   80.447227   93.080292    9.670475
H   71.867615   11.020016   80.976913
H   36.799831   75.823555   83.328011
H   38.250099   49.919258   89.513893
H   47.820473   39.290710    4.706501
H   86.332298   96.362175   20.638130
H   92.655067   36.487450   53.498035
H   25.280388   64.589020   54.716965
H   76.211098    6.344259   27.376871
H   32.977566   94.748535   93.331703
H    9.833732   84.493439   63.007286
H   33.917053   18.239027   37.741184
H   46.766167   68.895874   10.733199
H   24.652075   20.665367   41.881672
H    7.930639    1.411740   19.638655
H   90.196434   36.528706   53.848495
H   61.698742   54.162949   98.711494
H   85.960762   33.551025   24.180531
H   21.006739   20.838060    8.072489
H   54.009811   91.565422    1.160302
H    6.793012   76.371277   96.411537
H   48.097252   86.285690   82.668144
H   61.469475    8.229908   61.596489
H   46.564095    3.538628    8.609933
H   92.898796   90.644508    2.302784
H   11.277360   15.736669   90.218796
H   38.143017   52.492977   23.624199
H   38.534210   77.161530   57.938900
H   84.452690   57.013363   68.666672
H   45.960945   25.201649   70.545876
H   95.938858   15.208988   63.425201
H   44.724800   99.975418   39.396091
H   96.445633   48.678741   95.181084
H   61.416527   96.126961   75.681099
H   66.699974   76.524628   15.529771
H   82.510933   51.608566   51.049606
H   64.098213   91.632652   39.377468
H   98.842339   33.733280   73.085564
H   92.852417   21.694149   75.326485
H   69.519127   66.690216   23.207043
H   61.817360   91.189011   21.542698
H   90.746284    7.796500    1.228784
H   75.520889   26.283924   56.082302
H   30.015644   92.003845   32.613831
H   48.561554    0.962045   76.050240
H   69.750305   87.884499   81.125633
H   95.636711   48.047283   75.013725
H   59.852875   51.577698   71.427574
H   43.728539   84.246941   81.064209
H   76.262360   47.835579   31.642792
H   33.391769   56.749771   58.322308
H   38.353638   66.294777   81.912338
H   33.977211    7.776941   86.708229
H   64.650375   52.587616   66.006927
H   64.919838   70.899857    5.037293
H   56.982536   94.509331   43.572918
H   28.508141   54.136757   65.853050
H   79.033173   43.164886   92.794968
H   25.974339   94.330147   70.612244
H   57.962517   70.107162   47.433666
H   55.592674   92.776283   31.919380
H    0.239643   12.469707   85.280975
H   23.602894   13.032768   63.151775
H   34.153194   67.559494   70.124153
H   78.879433   44.813313   69.998245
H   64.733444   76.418610   86.889328
H   53.410667   28.348785   21.859818
H   88.673775   99.782486   83.394310
H   57.872173   35.808380   98.119766
H   59.044182   63.364845   69.643074
H   19.282820   20.371887   31.056450
H   87.516685   11.985214   37.016666
H   30.288744   35.396938   49.037163
H   53.994392   39.665001   14.914261
H   20.838360   47.957371   59.470196
H   65.980110   89.188667   57.713039
H   24.084721   54.500473   69.432693
H    1.111746   26.485659   35.633781
H   50.112000    6.550666   84.570160
H   69.469116   11.794040   35.932602
H   28.267958   46.206818   59.048805
H   47.681450   55.195644   75.848953
H   64.847366   62.148346   86.257385
H   47.362122   91.139847   74.875084
H   16.899345   50.460068   23.787193
H   30.096340   69.103348    8.576164
H    6.320961    9.694862   71.503799
H   62.354130    9.337466   63.076687
H   61.659836   60.011650   93.692299
H   71.960617    3.752308   29.675690
H   29.675837   30.738369   88.526611
H   41.784153   89.620621   16.329529
H   62.761696   26.178852   96.246956
H   92.221649   65.867111   76.262741
H   10.104509   40.594711   86.546730
H   49.389038   95.651939   10.742800
H   65.535141   89.166206   43.652161
H   91.616920   63.483364   72.463547
H   59.033226   55.455517   72.247574
H   72.565201   13.886383   75.602364
H   43.406464   99.006317   18.026480
H   15.606385   29.847431   69.673119
H   26.054075   84.204178   43.752560
H   67.118393   31.118237   20.121853
H   76.592789   11.654516   22.469521
H   12.904483   99.683952   20.950544
H   13.855164   87.111153   32.358047
H    5.005662   13.061300   54.850288
H    2.605037   17.442947   90.552155
