100
TIME:    6.555, STEP:  6555
H   74.034500   20.895628   93.144730
H   19.442448   60.071308   91.419044
H   92.441666   45.496574   46.397701
H   82.576843   62.584442   80.861450
H   36.458511   98.169586   87.972885
H   26.368824   94.106575   27.909531
H    9.423312    3.961712    3.062638
H    4.676224   55.691868    6.334861
H   92.493462   56.056885   87.472984
H   95.719063   10.504353   64.372505
H   90.524902   29.997015    8.339081
H    5.653168   52.258839   26.336647
H   25.778641   65.196754   73.683769
H   30.516006   84.871529   56.079456
H   60.223030   84.507927   35.672504
H   37.962143   38.404823   88.918457
H   96.992897   15.533818   70.115852
H   41.242886   75.872818   72.293983
H   47.361103   53.345169    8.705928
H   15.915314   66.606728   62.627495
H   75.293732    3.645681   79.328011
H   90.814575   52.785843   61.059479
H   98.223503   41.310829   44.804810
H   10.003586   15.245089   20.241835
H   95.140572   66.316711   84.950050
H   16.664934   32.877296   74.013786
H   96.833641   69.995132   30.028799
H   79.449539   62.404945   83.446671
H   53.703163   43.812634   47.313293
H   52.340611   28.603783    4.492664
H   74.037254    9.855527   90.768272
H   79.644012   71.401749   92.434898
H   32.082119   88.887703   88.323120
H   55.066368   72.996109   95.600327
H   17.820480   63.364571   23.862307
H   42.452312   98.844078   98.817482
H    8.509145   64.477173   24.973547
H   93.062950   38.994022   85.009697
H   68.385468   38.593193    9.084330
H   45.785458   98.525681   53.768948
H   87.264160   81.100517   96.778664
H   47.794327   67.308578   14.604768
H   67.699615    2.809375   74.947990
H   60.783375   22.668173   21.649134
H   88.057961   73.263809   17.039316
H   93.512199   87.943436    9.791628
H   92.945602   81.320877   88.386299
H   56.589489   62.884354   74.164185
H   56.636757   89.565163   82.992905
H   63.362782   30.504351   25.205969
H   43.051495   36.800919   22.526394
H   23.697212   55.485016   43.741341
H   44.843410   60.016846   22.164087
H   24.893799    0.249059   21.070114
H   18.876133   33.053558   56.103222
H    1.760004    5.638499   69.479126
H   11.811223    0.404432   79.422447
H   37.956451   57.848747   44.714340
H    7.256564   15.735108    8.255857
H   26.456673   31.627293   77.170799
H   73.194969   73.732681    3.317358
H   66.268166   66.929062   98.759659
H   19.078985   59.981728   83.974426
H   93.159592   77.470963   49.173275
H   92.501602   37.307156    6.007331
H   98.663605   16.404442   33.766602
H   61.648636   74.984192   83.537186
H   27.567223   92.424232   79.569504
H   83.602547   78.785843   49.115345
H   63.184837   77.840263   87.930176
H   13.881258   49.399170   83.517738
H   33.477634   33.977432   36.548111
H   79.592712   94.070190   93.676575
H   85.907997   34.553623   13.677866
H   78.213127   37.986698   98.311050
H   80.622704   27.686386   54.860199
H   62.116787   58.449726    6.995504
H   39.946148   22.104490   76.448540
H   75.848244   34.264622   90.814919
H   78.061844   51.937996   56.202049
H   39.143906   97.096146   71.766129
H   33.179169   86.980957   38.613209
H   32.493584   16.740759   54.209175
H    1.123661   73.084618   64.718102
H   33.155678   38.866463   12.318569
H    0.424428   49.831299   96.982162
H    4.948384   26.750893   36.111137
H   61.451439   80.536560   27.612679
H   91.717148   29.199877   74.579353
H   86.788681   39.586094   58.540459
H   92.280235   27.383381   71.891403
H   63.302517   88.478271   58.421982
H    5.641680   24.201572   25.912790
H   80.782143   10.857181   68.792587
H   43.260796   62.573685   66.713135
H   35.337738   36.881195   28.874847
H   42.296989   43.857590   60.205338
H   25.624659   10.800984   47.289154
H   96.448143   65.108284   95.986519
H   46.366673   10.423409   66.277443
