100
TIME:    6.004, STEP:  6004
H   11.296606   71.424797   93.649185
H   34.658455   30.211744   56.677982
H   82.966309    5.856158   52.867344
H   82.484360   85.284943   11.062648
H   41.393768   54.004501    2.912935
H   34.915142   94.703514   73.343163
H   38.300594   66.757729   59.973698
H   47.983734    8.024844   56.927349
H    6.038155    9.033294   22.156130
H   10.770144    2.592116   42.798618
H   41.777573    7.826576   61.412949
H   26.684761   24.639896   65.557762
H   60.939194   98.516045   28.434013
H   57.798531   86.569862   14.146587
H   53.528877   33.725662   62.167339
H   60.116150   86.597145   34.656952
H   41.301216   79.088264   19.956152
H   29.459646    2.684402   91.396034
H   38.781155   30.228495   79.675659
H   30.758919   78.310097   25.112818
H    7.990837   58.500980   94.285118
H   37.989670   52.054382    7.982178
H    5.580662   45.792076   60.569046
H   61.200718    8.653536   61.165188
H   14.847136   10.011940   80.880775
H   19.176702   49.167007   25.828651
H   44.347473   92.897415   19.094725
H   25.941990   36.686119   65.235825
H   41.722343   93.822113   73.360016
H   31.212410   42.240898   60.689285
H   52.351814   60.444965   34.361565
H   44.853397   86.627899   43.443687
H   93.270500   29.200686   38.684692
H   31.785725   23.491844   18.812132
H   31.528996    5.062866   90.330414
H   94.555389   55.687904    0.549718
H   55.660095   84.655396   81.557106
H   15.836960   49.078930   46.126514
H   91.640869   50.599236   62.480049
H   97.684052   50.109364   10.416243
H   24.920486   62.192245   83.797340
H   94.229462   65.147827   86.474174
H   62.956806   99.504150   35.149490
H   95.968765   13.419821   67.774376
H   35.853374   95.005844   69.888779
H    0.624803   77.433945    7.553107
H   88.640915   51.356216   83.097923
H   56.560062   57.209229   40.071400
H   40.532013   35.198395    4.971023
H   51.799801   22.116072   63.735062
H   43.089329   89.995758   16.718849
H   96.916328    6.612767   79.910805
H   33.413288   56.821960   54.166943
H   37.652321    9.239934   96.757164
H   62.747581   84.766922   51.415989
H    1.073734    6.218098   88.236465
H   76.878746   16.304161   27.017921
H   78.985504    9.883665   58.906357
H   63.798271   92.452354   50.554649
H   62.815308   89.275192   92.842552
H   38.437977   99.359024   46.276264
H   85.824226   72.057693   23.691628
H   81.672447   97.580482   21.758148
H   55.324463   74.469452   64.134552
H   70.633453   81.315048   54.695545
H   32.510612   43.796379    1.186704
H    5.855990   55.934368   56.935562
H   65.628395   60.912571   53.228519
H   56.142147   18.377174   83.672363
H   52.023758   50.126732   89.090424
H   31.379433   86.888626   90.126106
H   78.909439   52.263947   96.206314
H   15.519176   21.324310    7.803581
H   98.040154   69.424767   46.415855
H   51.647091   37.200588   56.542130
H   67.599342   92.372734   91.936646
H   12.078876    6.158834   97.231728
H   14.059169   58.134651   46.018974
H   49.425495   35.883083   84.668968
H    5.083578   81.953102    3.671259
H   28.361170   91.395798   38.833591
H   91.829300   83.407593   84.706169
H   97.640312    7.526977    1.733460
H   63.213974   25.934566   15.044936
H   59.984306   73.332253   65.731934
H   13.106968   29.590271   58.719208
H   68.148308   66.813072    9.837408
H   52.589836   24.627150   33.325638
H   80.282822   59.878990   79.085823
H   35.504284   62.257168   38.845673
H   69.731071   97.630951   60.255291
H   22.534098   47.037247   47.925102
H   70.321472    7.668043   83.303116
H   27.531155   77.428902   31.639437
H   52.786598   11.927319   54.051304
H   89.827347   58.640045   57.334549
H   86.033287   12.237823   91.893555
H   26.688219   83.536118   58.349342
H   22.696167   62.731182   42.139618
H   12.143446   24.562878   19.355854
