100
TIME:    7.775, STEP:  7775
H   91.530998    9.016566   92.027786
H   85.750473   26.179554   68.345108
H   13.416071   33.268036   32.072903
H   82.781616   12.320168   13.987997
H   25.528326   95.957878   54.892746
H    7.446994   92.784859   48.730736
H   45.481884   86.342789   98.468277
H    8.786629   61.237171   94.318672
H   62.503532   38.758911   10.677956
H   62.396919   28.022478   12.141476
H   77.043472   79.086670   90.822189
H   59.093163   13.410984   39.495628
H   47.963829   91.375702   52.448223
H   70.109749   81.111153   48.921741
H   75.041145   75.531509   77.001251
H   88.906815   31.699158   87.647736
H   98.887672   96.227402   81.177277
H   67.331635   16.507278   30.006325
H   66.359604    4.522453   72.978012
H   83.044449   40.702015   45.690742
H    2.897195   82.191589   46.215641
H    7.777161   54.405411   57.165207
H   81.934746   31.388937    9.897790
H   96.648056   29.839815   29.634346
H   51.505318   69.564636   93.960060
H   10.947582   96.896469   59.221191
H   91.631927   19.278864   54.238544
H   76.509300   19.350409   23.771990
H   80.230568   54.500690   89.644218
H   99.121918   98.407852    1.479244
H   22.050077   19.255241   94.245827
H   56.675503   37.695942   79.493385
H   18.017157   99.626884   98.230354
H    6.613610   61.190346   44.202316
H   87.457298   70.993431   98.088226
H   48.504948   94.399826   94.982643
H   25.522999   19.798166   21.104765
H   42.636902   16.664463   71.100609
H   16.885860   12.013441   90.857368
H   30.875679   84.313980   49.755882
H    3.885850   22.962355   25.520109
H   44.979347   72.092819   76.886894
H   78.198883   10.127775   63.068584
H   82.883453   43.145470   40.933590
H   82.231804   25.131069   21.437912
H   77.763298   11.211169   14.748064
H    2.478360   47.669441    0.095644
H   56.662167   75.449966   49.650478
H   92.302559   88.524849   34.325729
H   88.977783   49.073910   39.904388
H   42.967724   19.017523   35.386429
H   82.993317   42.276592   63.656494
H   70.149223   67.090820   51.311165
H   96.643341   80.348755   74.905838
H   21.737988   39.968781   66.479263
H    3.279512    4.355178   27.947449
H   89.153397   65.202080   95.454552
H   47.112961   42.634819   13.288430
H    3.471648   67.290749   14.599163
H   45.948357   25.400341   42.471092
H   50.153820   16.998440    8.196540
H   22.967995   55.573471   43.560593
H    1.904782   76.730865    0.315368
H   76.935783   84.116776   16.046597
H   40.926079   39.868023   19.620955
H   23.717220   55.755028    5.902709
H   63.765717   17.164856   42.439739
H   43.293404   62.197990   37.892563
H   44.407799   91.124428   72.599213
H   87.930962   39.162052   85.352951
H   75.140907   66.391220   68.885780
H   33.015331   93.438866   25.950899
H    0.046052   33.729321   62.401554
H   59.047230   57.338757   41.188995
H   37.000107   39.763470   90.807510
H    9.460994    5.876922   72.769630
H   72.918663   52.855286   28.631681
H   97.263962   42.333935   43.824444
H   34.352516   30.681095    4.425320
H   18.231983   85.478050   51.097969
H   63.023521    9.718301   44.684036
H   24.726597   94.892639   36.547848
H    9.660420   37.143589   70.395508
H   85.056694   77.482666   53.290379
H   73.752197   62.546467   94.054054
H   72.351791   94.642288   81.702728
H   86.429451   38.046638   94.285271
H   81.072411   82.911133   14.963295
H   17.037292   61.272591   64.601326
H   78.924713   89.390762    2.155633
H   42.207752   93.259575   97.655563
H   53.570164   80.233856   81.670784
H   83.846054   60.809391   20.257265
H   98.690102   84.873131   51.055065
H   22.167011   53.293228   94.748413
H   36.104736   88.706177   65.860039
H   45.459160   13.870862   90.041084
H   23.269770   71.165199   22.798422
H   38.329857   70.376534   93.799004
H   22.146860   79.113602   48.750362
