200
TIME:    0.766, STEP:   766
H   25.633963   60.729313   24.333851
H   32.652405   40.557159   11.251031
H    7.113193   92.161087   71.256523
H   35.573013   83.121773   30.744926
H    9.625466   97.060638   46.095886
H   72.506897   38.538528   49.980560
H   10.980025   54.930916   59.832500
H   14.675992   11.599311    6.401798
H    8.789495   79.620560   34.887653
H   92.345016   67.530800   75.324928
H   30.527452    5.830462    9.583763
H   32.952881   56.062538   37.805145
H   24.084194    4.465148   39.733513
H   79.542412   55.426159   67.612297
H   94.226700   75.993767   41.684380
H   13.968554    4.293827   42.976074
H    8.951241   32.353664   89.893532
H   24.072163    8.453837   34.155888
H   82.526382   10.659077   50.227036
H   91.729698   72.481163   17.080357
H   64.397621    3.015627    1.742324
H   78.318916   68.919807   50.304718
H   79.253944   58.717010   36.515129
H   19.749493   92.854790   89.936714
H   26.109100   33.858902   26.641262
H   18.225676   85.680115   89.584007
H    9.082089   69.351112   70.230698
H    6.582150   91.828056    2.115328
H   33.222698   40.541695   35.258339
H   69.280060   34.855412   80.430679
H   12.674757   73.424782   16.837906
H   22.360920   75.834457    6.553618
H   14.413933   20.303686   79.604065
H   79.017891   64.151787   47.484222
H   22.745913   68.066269   30.217619
H   15.879330   37.928917   85.508110
H    1.361551   63.076050   89.903786
H    6.897025   58.361599   91.517807
H   33.602890   27.565548   56.123688
H   85.038330   37.525448   43.149506
H   80.660820   80.652008   18.983429
H   39.520523   32.076988   24.233875
H   67.231033   75.698601   69.859856
H   36.109451   88.781044   37.560268
H   46.749321   92.343384   63.345695
H   33.657700    0.149414   48.408497
H   89.886414    0.442077    7.711365
H   77.310143   65.542580   28.738113
H    7.422668    8.791376   61.545567
H   43.294132   20.175230   83.459671
H   65.695511   63.838448    7.023089
H    1.031043   44.751446   74.850533
H   66.363976   79.379707   14.802063
H   14.578022   93.283829   89.492516
H   54.934433   64.686859   73.761986
H   98.562920   59.391167   95.872284
H    3.929354   18.735939   44.012226
H   73.155380   70.807190   95.809227
H   17.082037   84.638535   19.848240
H   30.937695   93.035561   57.270584
H   48.715973    5.114004   26.868149
H   99.390312   17.670938   53.098656
H   85.938477   36.102554   67.139160
H   36.870903   65.902779   15.411636
H   79.803894   83.920593   39.438953
H   18.105867   36.996391   42.318069
H   66.527199   12.066697   96.702492
H   94.395836   92.645821   97.685448
H   35.232208   12.961383   55.322136
H   42.209110   50.797825   50.954502
H   58.234413   85.689743   87.351135
H   17.357384    9.996051   41.082844
H   94.188126   34.756695   81.882431
H   25.001902   97.402901   75.886024
H   85.549881    9.386294   42.880219
H   66.609032    0.506479   59.440285
H   93.204346   49.531929   64.705360
H    7.073049   15.548113   29.980995
H   15.530668   53.126549   23.284517
H   60.349369   87.733398   69.316437
H   65.692757   21.212114   93.324463
H   49.765507   59.130428   71.596306
H    8.947534   19.436079   74.889626
H    7.521245   79.059578   10.994914
H   20.177254    4.886091   42.875679
H   39.485939   67.370422   16.833183
H   59.429947    3.880177    2.977237
H   70.957253   98.967285   31.281761
H   81.785782   73.337463   79.065063
H   20.809555    9.624504   49.078671
H   19.193638   39.433575   78.414871
H   80.391502   93.150482    9.845036
H   72.247681   10.929790   80.749069
H   36.441097   75.536140   83.547676
H   38.452797   49.811043   89.847084
H   47.489174   39.469574    4.330361
H   86.440819   96.085442   20.982674
H   92.435158   36.611748   53.573780
H   25.099113   64.508881   54.745316
H   76.350197    6.474245   27.378824
H   33.334499   94.969727   93.708412
H   10.131194   84.614471   62.963158
H   34.082886   17.946653   37.852970
H   47.150566   68.910645   11.050902
H   24.641470   20.560234   42.141041
H    8.247366    1.020061   19.264097
H   90.575401   36.628040   53.811264
H   61.651592   54.470108   98.402168
H   86.164070   33.450043   24.567371
H   21.263727   20.726519    8.111643
H   54.115067   91.495903    1.165930
H    7.114217   76.572449   96.502663
H   47.958305   86.378525   82.494133
H   61.442375    8.057438   61.390221
H   46.297127    3.871748    8.329423
H   92.572319   90.410500    2.663694
H   10.948434   15.849317   90.312057
H   38.102428   52.886745   23.464287
H   38.838013   77.461884   57.543545
H   84.663811   57.173031   68.965134
H   46.044441   25.254810   70.283730
H   95.593704   15.019474   63.660522
H   44.917671   99.638016   39.633427
H   96.327774   48.390869   94.830742
H   61.177147   95.928902   75.416512
H   66.993065   76.743500   15.375299
H   82.312080   51.645920   50.740646
H   63.923225   91.695396   39.445034
H   98.940788   33.443699   72.903252
H   93.240173   21.656231   75.462776
H   69.842064   66.404572   23.512768
H   61.510292   91.268356   21.731358
H   90.720161    8.185705    1.288313
H   75.128616   26.489033   56.180752
H   30.410847   91.859192   32.246216
H   48.348480    0.951778   75.932381
H   69.763550   87.904884   81.523888
H   95.704948   47.797497   74.887321
H   60.061981   51.689575   71.425682
H   43.732872   83.863274   80.841919
H   76.658417   47.600319   31.901215
H   33.023483   56.992844   58.508801
H   38.096466   66.441994   81.642502
H   33.610634    7.487352   86.840797
H   65.026413   52.322296   66.268524
H   65.212990   71.037674    4.654141
H   57.171745   94.474297   43.515636
H   28.289696   53.838966   65.807152
H   79.247040   42.830872   92.715439
H   26.229359   94.417488   70.312866
H   57.680565   70.243027   47.373272
H   55.929436   92.554909   31.668678
H    0.611291   12.170574   85.000153
H   23.814365   13.216400   62.954052
H   34.470425   67.770798   70.268867
H   79.116920   44.833149   70.244400
H   64.817184   76.658539   86.984055
H   53.524406   28.220428   22.047241
H   88.307625   99.752335   83.097618
H   57.782482   35.481964   98.426773
H   59.122765   63.039833   69.430367
H   18.907194   20.330429   30.987144
H   87.861046   11.636414   37.013340
H   30.582399   35.631954   48.694908
H   53.917793   39.936455   14.992867
H   20.976192   47.702824   59.426464
H   65.842354   89.059273   57.797848
H   24.091709   54.864456   69.763504
H    1.220473   26.459642   35.614891
H   50.477081    6.490294   84.480072
H   69.316284   11.889178   35.931931
H   27.991575   45.909668   59.073372
H   47.836021   54.851864   75.623856
H   64.748856   61.957031   86.442993
H   46.990295   91.079666   74.498924
H   17.146172   50.503494   23.795403
H   30.014156   69.353287    8.910789
H    6.391864    9.702492   71.606094
H   62.149509    9.151484   62.983150
H   61.279312   60.097466   93.805153
H   71.814560    4.039007   29.489700
H   29.837198   30.748135   88.818665
H   41.415775   89.612137   16.488037
H   62.935921   26.193653   96.541267
H   92.325104   65.520126   76.229782
H   10.271982   40.662216   86.586769
H   49.667603   95.514915   10.920061
H   65.150803   89.505074   43.932098
H   91.385231   63.519039   72.554977
H   59.178703   55.411999   72.348648
H   72.947342   13.621704   75.545235
H   43.340881   99.223724   17.924582
H   15.784081   30.037754   69.856407
H   25.914320   84.523453   43.913784
H   66.843857   30.760921   20.095684
H   76.612320   11.674147   22.359917
H   12.957660   99.902092   21.220564
H   13.622658   86.952156   32.132431
H    4.898980   13.083685   54.492500
H    2.521596   17.171906   90.441010
