100
TIME:    4.129, STEP:  4129
H   38.094391   43.370941   95.365799
H   86.442970   28.608011   38.452415
H   50.728470   70.960884   74.875847
H   82.169647   62.535515   13.838016
H   58.187973    3.715060   53.750122
H   63.997440   96.734840   87.654778
H   36.569553   40.147877   13.346185
H   95.355034   45.812397   29.082767
H   52.129234   89.306793   40.181217
H   62.005745   75.669685   69.378815
H   16.185501   32.381626   42.023220
H   98.246407   30.655893   99.022850
H   80.587143   11.901157   14.743973
H   50.636848   92.349129   71.459595
H   30.726124    1.208790   52.296124
H   35.507004   50.591667   90.297791
H   92.077431   55.070889   49.267509
H   89.371178   93.907234   56.396946
H    9.578922   51.571396   80.893692
H   81.275169   18.132261   97.454185
H   19.255997   45.162800   45.174500
H   58.231598   49.565292   67.655792
H   30.615929   61.041328   14.214177
H   35.412682   86.202545    0.416757
H   81.907745   58.710152   67.033424
H   27.724009    4.589910    2.146587
H    6.030169   70.841080   81.895241
H   84.148682   49.167465    3.252781
H    0.951512   23.707069   61.992073
H   59.317261   88.646690   11.632423
H   78.558250   92.311180   82.705605
H   26.464643   38.431236   17.021812
H   61.199749   66.385017   69.769882
H   52.561844   95.324615   97.803780
H   78.135132   46.799431   76.154999
H   31.564154    8.830151    6.447559
H   75.823318   53.323227   33.814259
H   93.333641   83.388817   13.814230
H   70.787750   91.454643   44.181221
H   74.287178   25.639862   62.896618
H   53.063629   97.861481   39.623150
H   60.530136   97.168869   96.785767
H   46.806332   88.260330   99.716393
H   15.694471   81.968750   84.446289
H   98.495827   68.980255    9.440177
H   24.817905   41.671162   99.932747
H   73.992477   49.387230   65.102089
H   56.459927   37.897324   24.057014
H   85.725143   90.486237   79.767395
H   12.475039   93.580589   94.877419
H   43.229603   71.015129   96.952332
H    5.794806   80.599289    2.999680
H   94.520897   45.950073   63.064976
H   81.073967   39.837784   14.017936
H   12.037006   20.443735   35.465786
H   98.732529    8.190588   52.065903
H   58.011189   70.406105   48.689751
H   18.601799   86.954323    7.201035
H   15.922628   13.228886   94.497368
H   86.547470   45.157322   46.172005
H   20.161119   86.554466   92.466927
H   52.368340   89.509933    8.528972
H   54.379040   25.527767   50.332542
H   26.570097   64.255600   15.036373
H   96.208839   31.067249   80.084694
H   47.694069   37.007912   90.322510
H   56.291245   91.113068   66.410385
H   95.147346   53.679398   63.592678
H   62.692841   53.102722    1.267859
H   14.040297   55.820534   93.038635
H   90.917397   14.462492   12.617237
H   33.512451   14.491811   58.928875
H   37.773438   14.069920   55.883072
H   39.315655   88.088295   57.822746
H   61.245319   34.525532   14.404109
H   23.268953   72.203941   18.100548
H   41.841476   68.673141   64.072472
H   25.968258   80.735863   42.469673
H   59.511604   41.390553   63.754723
H   97.031128   84.079994   65.204185
H   91.672989   71.998062   26.769220
H   51.129448   71.193069   41.513428
H   79.039284   76.178558   23.166851
H   34.218987   65.486519   86.296616
H   51.281555   90.612938   47.492126
H   56.265499   60.721695   28.513641
H   42.921303    3.140993   20.430311
H   22.418592   74.716576   52.802994
H   41.372910   64.276039   94.420906
H    1.278965   39.397980   71.817429
H   92.998260   96.386238   20.658731
H   83.800613    6.023485   12.202875
H   50.130363   51.408531   38.306438
H   46.311787   63.688683    5.216346
H   85.201988   79.879173   10.967370
H   34.960083   32.680855   54.180763
H   34.861389    4.635537   99.726044
H   22.022261   51.393646   89.965324
H   12.017143   54.648792   99.188972
H   95.679832   72.674660   99.979889
