100
TIME:    8.016, STEP:  8016
H   75.232903   86.915855   91.807144
H   79.094437   39.239727   83.539993
H   17.558626   50.606827   29.244064
H   82.822067    2.390354    0.777610
H   23.368792   15.274999   48.358063
H    3.709409   92.523766   72.598030
H   32.851963    2.615415   17.314808
H   89.844498   82.087608   72.191948
H   56.579292   15.587171   95.508072
H   55.814430   31.482882   21.578522
H   54.626236   88.783890   67.606964
H   49.894226   25.491039   22.341225
H   32.596107   76.787582   28.499228
H   58.176689   80.368324   67.262291
H   77.968330   54.004196   65.410187
H   79.216949   10.620365   67.642853
H   79.507942   12.167633    3.116460
H   72.483627    4.780529   21.652264
H   70.114197   14.633298   85.675964
H   76.550217   35.584957   62.099159
H   88.595924   58.199993   39.675442
H   30.882067   54.725342   36.641815
H   78.717049   29.429819    3.002265
H   74.256561   32.722870   11.735566
H   42.885567   50.452049   95.739906
H    9.811275   89.791794   36.541023
H   70.851120    9.260484   59.020962
H   56.174164   30.599478   31.738089
H   85.470818   76.366318   78.251732
H    8.362680   92.443161   20.637478
H   31.534929   40.865837   75.178673
H   71.892448   31.038067   57.182793
H   34.992970   81.993904   19.941542
H   16.796738   39.104073   34.049103
H   81.459511   52.746330   12.751183
H   69.454910   13.276425   94.225105
H   48.637356   10.971563   40.094692
H   32.676750   12.253851   88.108437
H    6.712813    6.763079   67.502403
H    8.176205   61.753143   68.717773
H   87.415085   31.230917   31.197966
H   24.669243   73.037903   89.191368
H   80.272919   11.573441   80.477150
H   67.493668   47.190575   64.496368
H   61.326202   15.623215   42.061066
H   74.652245   15.806960   15.727163
H    4.362321   60.775581    2.410202
H   56.676876   77.932190   64.562202
H   99.348396   68.564095   24.711948
H   94.037842   52.742085   23.053337
H   42.951176   95.750069   37.927490
H   94.705734   19.913176   47.836456
H   75.146767   68.488220   37.315102
H   91.061096   76.417648   85.540787
H    2.548626   61.089745   68.527557
H    3.579677    4.101669   19.743240
H    4.432437   58.248177   18.375893
H   29.167551   19.875097    7.080573
H   22.479095   77.473381   96.097595
H   30.045578   43.925083   35.616478
H   65.356064    5.791161   89.405800
H   14.414436   53.330276   32.655357
H   18.266384   60.285675   83.789276
H   93.483940   85.429596    9.503177
H   50.492752   20.619383   42.064438
H    8.913055   43.774162   20.152836
H   44.430115   25.496853   54.074932
H   26.645958   75.980766   49.413757
H   56.419922   73.807701   57.484436
H   92.825539   51.266109   84.841797
H   67.488304   49.993835   65.995369
H   13.169606   85.436913   43.615452
H   84.332657   21.808344   56.221737
H   53.742626   42.086872   26.869654
H   48.609558   40.118336    9.080151
H   15.158616   21.322819   56.553284
H   94.806358   31.995415   32.905899
H    8.585698   26.576412   57.134678
H   45.908646   29.973202    7.114855
H    6.413499   72.349846   30.335548
H   67.741585   12.211556   59.088287
H   42.810425   96.455521   16.385963
H   24.904032   41.173985   93.345963
H    1.637854   98.105347   31.279491
H   62.017715   47.471096   70.691734
H   66.806320    3.494078   98.438431
H    2.525309   20.523979    5.777124
H   84.948357   63.626976   12.464523
H   22.039433   47.853874   62.630257
H   57.617489   79.476578   10.770483
H   52.070454    6.273090    2.745146
H   71.401726   98.359604   86.263817
H   99.294678   68.039909   38.894165
H   21.981607   99.494347   67.305351
H   17.999634   31.705238    0.286506
H   56.010330   79.189148   53.412148
H   26.329763   27.700596   76.181084
H   22.804583   83.090904   17.959925
H   26.849113   71.417229   73.613930
H   37.115589   72.928268   25.533298
