100
TIME:    1.894, STEP:  1894
H   89.239166   48.331833   97.412003
H   48.585213    7.434055   97.473259
H   12.310995   10.166209    1.101877
H   81.794510   54.617638   36.346485
H   78.206665   24.569965   14.350840
H   98.646492   99.156181   66.315758
H   53.704784   89.229286   38.566124
H   71.021629   52.456280   34.293297
H    7.069862    4.192957   80.866905
H   23.081697   43.578392   81.857201
H   24.079758   42.451588   57.309093
H   83.551758   18.626848   58.111916
H   22.785397   47.117821   36.880829
H   61.301750   99.238014    1.373325
H    3.537525    0.847844   59.731117
H   25.371490   46.073441   75.823013
H   71.792694    7.250252   45.798279
H   41.618439    2.595300   33.885056
H   74.762169   57.810837   63.143955
H   41.490005   65.590195   45.284950
H   51.883987   67.664490    5.838303
H   43.956974   46.599800   57.985214
H   60.456398   79.218437   78.160294
H   43.068413   59.397282   66.410431
H   61.843498   35.962547   50.536316
H   37.974491   71.171829   11.647979
H   98.756691   63.748074   37.550663
H   72.731033   44.845226   29.377432
H   52.354111   20.930468   67.641930
H   73.617867   43.963608   33.955685
H   90.606331   91.889618   59.537846
H   85.345581    0.185370   23.926979
H    3.767834   29.907757   68.423431
H   58.127373    0.149061   91.960495
H   33.693489   15.748445   40.059357
H   37.230968   33.267330   14.128778
H   61.457390   35.174660   57.705082
H   85.708641   24.288525   56.094707
H   65.575119   40.076683   60.597015
H   84.799599   34.873150   87.050308
H    5.808121   21.171270   86.966354
H   61.399261   96.860420   91.783493
H   27.554968   74.857697   38.278984
H   58.414406   44.514351   65.918381
H   92.365166   57.161312   18.184851
H   53.652325   99.041939   90.861244
H   56.078968   27.911310   43.807320
H   56.340565   14.883875   85.767937
H   20.394423   75.587791   68.923569
H   65.612450   59.577290   51.194965
H   43.400120   86.789787   73.386887
H   97.178459   87.990082   49.725193
H   48.168564   32.990784   92.868950
H   32.832104   76.305611   15.393557
H   89.978516   24.542788   16.477980
H   95.936050   10.541445   28.150574
H   16.323832   34.896614   36.122688
H   85.025970   98.022324   64.770584
H   39.652237   18.794626   66.081085
H   34.034138   73.367706    9.740129
H   79.175491   90.492500   66.723503
H   31.689426   10.315104    9.655961
H    2.700971   77.996529    3.622316
H   73.097839   52.097382   75.720070
H    7.497393    9.572982   71.946442
H   84.993935   48.116646   58.173412
H   35.609848   13.843959   58.504833
H   49.534294   25.857441   56.746754
H   51.300110   13.695557   41.444588
H   68.753723   43.406128   97.744904
H   61.889442   66.533028   39.431889
H   17.798433   88.666779   95.291222
H   83.499023   24.621624   13.183048
H   88.507805   29.523123   90.642509
H   53.487892   31.338636   44.976299
H   70.436333   28.959867   68.486290
H   38.917847   62.388756   24.545027
H   20.963894   26.876253   19.037868
H   52.338425   47.953953   38.809563
H    6.640028    5.802191   57.751381
H   47.946178   48.875957   93.189018
H   83.432144   56.596817   28.402742
H   37.636181   38.869446   10.293972
H   80.460579   74.233620   90.433929
H   60.107483   30.413353   64.150391
H    7.698221   78.625496   73.308327
H   93.650688   65.643692   13.856602
H   86.444824   53.656311   76.053291
H   94.987495   88.717644   12.704168
H   98.882889   31.351105   91.924110
H    1.532811   75.701218   73.459549
H   18.424105   37.952328   69.609276
H    6.807076   84.382553   65.440140
H   30.290043   28.117338   54.520432
H   23.845982   80.076843   59.608574
H   50.358231   20.939173   69.621338
H   12.265767   76.373329   28.263763
H   13.819263   32.363953   25.731766
H   18.487099   45.014584   86.399429
H   56.865158   30.053585   15.266388
