100
TIME:    8.363, STEP:  8363
H   51.766350   55.094109   91.489456
H   69.510849   58.044209    5.418482
H   23.523218   75.571808   25.171040
H   82.880310   88.094170   81.758614
H   20.259420   43.088581   38.949203
H   98.328491   92.147835    6.961566
H   14.665759   26.047541   44.450657
H   62.570984   12.108262   40.331169
H   48.049370   82.224258   73.667023
H   46.336739   36.465290   35.165993
H   22.349136    2.746191   34.183258
H   36.649284   42.884457   97.642082
H   10.468973   55.784149   94.015350
H   40.995064   79.298775   93.667458
H   82.182991   23.008438   48.723404
H   65.265152   80.270348   38.839142
H   51.604347   35.118053   34.705238
H   79.901642   87.895515    9.624153
H   75.520187   29.191349    3.958372
H   67.199600   28.216562   85.724556
H   68.004448   23.654072   30.258394
H   64.149300   55.185989    7.091548
H   74.084099   26.609015   93.074310
H   42.014717   36.873993   85.964966
H   30.474720   22.932327   98.302589
H    8.175150   79.562241    3.886250
H   40.928162   94.836319   65.906113
H   26.896338   46.796268   43.209244
H   93.015907    7.849017   61.848442
H   21.667568   83.854996   48.222839
H   45.192822   71.981407   47.725136
H   93.802330   21.451832   25.059242
H   59.436413   56.605339   51.202042
H   31.459362    7.303679   19.431299
H   72.823692   26.473534   33.864094
H   99.619385   40.456367   93.134377
H   81.919243   98.262947   67.437035
H   18.334522    5.903400   12.595634
H   92.066368   99.203270   33.875130
H   75.491760   29.267012   96.017761
H   63.699677   43.136276   39.373135
H   95.425705   74.398666    6.907153
H   83.259186   13.654959    5.542297
H   45.337643   53.017326   98.425446
H   31.227802    1.933468   71.755669
H   70.172844   22.424137   17.136904
H    7.074929   79.646248    5.742696
H   56.698055   81.506180   86.032616
H    9.491005   39.826149   10.869772
H    1.323120   58.023647   98.790977
H   42.927349   62.249870   41.586197
H   11.570282   87.714615   25.057823
H   82.342400   70.500244   17.162119
H   83.023590   70.757507    0.853279
H   74.920265   91.498032   71.476761
H    4.011866    3.736659    7.930542
H   26.430031   48.235710   51.378380
H    3.329926   87.104851   98.142357
H   49.847454   92.134682   69.459457
H    7.147960   70.596985   25.746971
H   87.244766   89.653320   62.349537
H    2.098706   50.100449   16.954899
H   41.824825   36.607330   59.994446
H   17.311611   87.319839    0.081481
H   64.267120   92.904846   74.378601
H   87.596718   26.523705   40.670185
H   16.589323   37.492939   70.827682
H    2.676031   95.825676   66.002365
H   73.713898   48.874489   35.720161
H   99.872917   68.694656   84.105820
H   56.468014   26.382145   61.833656
H   84.594467   73.915428   69.049545
H   61.707977    4.643991   47.323826
H   46.104877   20.125973    6.252999
H   65.325241   40.629284   35.389835
H   23.362841   43.562988   33.205864
H   26.321857    1.960729   39.061104
H   24.886763    3.888195   76.300903
H   62.547554   28.953953   10.987339
H   89.396355   53.447411    0.441389
H   74.534813   15.801431   79.828018
H   68.848099   98.705811   87.355400
H   46.853195   46.977085   26.392841
H   25.510780   27.799471   99.587181
H   45.122009   25.765064   37.053871
H   58.820042   16.239986   22.535477
H   25.700716   95.293922   22.323418
H   90.529076   35.858398    8.866707
H   29.241684   28.533388   59.792244
H   26.936991   65.201797   23.174597
H   66.271111   25.009083   10.073386
H   97.076210   24.456757   92.877022
H   21.537769   78.449486   65.728210
H   55.516617   20.546375   90.703072
H   11.999302    0.622192    8.259808
H   84.671082   65.486206   35.489250
H   98.787102   47.614052   56.224983
H   22.134790    0.261917   10.993292
H   10.318976   72.915657   44.549000
H   58.668072   64.022415   92.105499
