100
TIME:    8.460, STEP:  8460
H   45.206535   46.198692   91.400650
H   66.831863   63.300793   11.534675
H   25.190554   82.550491   24.032471
H   82.896591   84.097893   76.442085
H   19.390230   50.863560   36.319061
H   96.824707   92.042747   16.567802
H    9.582162   32.597733   52.036182
H   54.946976   20.499788   31.424652
H   45.664925   72.898132   67.561600
H   43.687355   37.858067   38.963936
H   13.326431    6.649114   24.839827
H   32.946808   47.746593   90.737404
H    4.283495   49.913322   84.375443
H   36.192131   78.999794    1.048825
H   83.361153   14.343918   44.058861
H   61.365082   71.786400   30.787327
H   43.804207   41.533558   43.535530
H   81.975266   83.175468    6.261867
H   77.031372   33.260891    9.068500
H   64.585739   26.156630   92.328773
H   62.248329   13.997143   27.625662
H   73.448784   55.314758   98.831161
H   72.789009   25.820490   90.299118
H   33.001633   38.034393   78.761307
H   27.005730   15.239494   99.018959
H    7.717613   76.702682   94.758270
H   32.563362   90.804520   67.830246
H   18.711740   51.323902   46.415886
H   95.125053   16.649508   57.263084
H   25.386696   81.454269   55.934174
H   49.010746   80.679970   40.050804
H   99.926994   18.772106   16.079460
H   66.269058   49.508247   59.940567
H   35.557816   98.414276   15.345106
H   70.409645   19.129265   39.766003
H    8.051180   48.054474   92.829475
H   91.223167   94.710701   75.080284
H   14.325373    4.128202   19.440369
H   87.972404   97.089684   24.475296
H   66.355087   20.186213    3.649346
H   57.070297   46.464287   41.658413
H   87.251099   74.779053   11.859185
H   84.093964   14.236824   12.548548
H   39.144154   54.646179    7.909350
H   22.813789   98.107048   80.056084
H   68.920677   24.273895   17.530981
H    7.833389   84.921333    6.674143
H   56.703976   82.505249   92.034431
H   12.326141   31.792892    7.000229
H    3.359186   59.500050   92.009148
H   42.920689   52.885262   42.608948
H   16.284605   78.714111   18.690052
H   84.353859   71.062683   11.528479
H   80.776794   69.175278    5.133372
H   67.197090   99.998260   72.301178
H    4.132679    3.634624    4.628433
H   32.579117   45.436836   60.603859
H   96.107117   77.944496   95.643944
H   57.498104   96.233086   62.012863
H    0.747071   78.052261   22.988060
H   93.363510   85.141968   54.786953
H   98.655968   49.197586   12.565880
H   48.410542   29.988199   53.342865
H   23.972443   87.848236   97.448349
H   68.116867   85.157990   83.411667
H   81.637825   21.701530   46.405582
H    8.806574   40.846111   75.510727
H   95.975540    1.373179   70.639526
H   78.547913   41.904686   29.636200
H    1.842977   73.567154   83.900085
H   53.387180   19.781998   60.670296
H   76.606354   70.694725   76.159958
H   55.383499   99.845940   44.836514
H   43.969830   13.986877    0.489758
H   69.997925   40.772114   42.744465
H   25.656260   49.780159   26.679049
H   35.131668   93.565430   40.781723
H   29.443628   97.545952   81.658875
H   67.199287   28.669033   12.069849
H   84.639305   48.163445   92.084740
H   76.433784   16.804941   85.625580
H   76.127243   99.334854   79.239998
H   52.988960   48.599277   35.630901
H   32.184181   36.100075   90.727287
H   40.399002   19.697384   27.650951
H   56.587307   19.802963   29.271423
H   32.179127   88.241234   26.948738
H   92.089104   28.096188    7.860964
H   31.254993   23.132864   58.998909
H   18.360907   61.210922   26.642107
H   70.240746   30.246426   12.121848
H    4.253229   31.751812   94.725670
H   27.755680   81.359367   73.229370
H   64.890915   26.431263   97.243645
H   10.321976   91.933945   10.488657
H   92.682877   61.655701   30.479103
H   91.087608   53.180717   50.646477
H   21.947557    5.061455    9.045847
H    5.698235   73.334526   36.423977
H   64.692917   61.533619   82.761612
