100
TIME:    0.109, STEP:   109
H    9.951430   12.025413   99.046219
H   98.238152   10.654560   84.876221
H   81.637207   81.745857   22.060028
H   81.494904   28.159975   34.188400
H   94.194748   81.494354   62.749825
H   26.326099    1.095018   89.540031
H   47.257175   68.698952   98.976425
H   11.319113   98.032532   98.185417
H   50.948570   75.813446   93.225578
H   71.861809   17.952168   11.957079
H   90.116119   70.628387   29.250362
H   51.681629   29.154106   85.170601
H   36.328995   55.112762   14.295463
H   49.685001    4.741195   65.536186
H   81.828728   60.285004   45.533451
H   97.140137    2.203571   23.991947
H   15.302700   89.205452   83.279030
H    3.474035   89.399857   95.767380
H   46.961601   82.926163   69.103836
H   89.698860    3.246840   23.624216
H   57.808334   45.366547   54.282875
H   72.799416   44.243805    9.974098
H   84.288719   93.735725   29.232388
H    8.914295   37.989048   98.978851
H   25.684340   77.528709   37.363174
H   46.155094   24.365711   78.954247
H   52.680157   37.946163    2.129308
H   23.343582   61.526928   70.379013
H   13.541257   58.981228   52.019531
H    5.173574   88.141922   92.054161
H   20.389498   31.816858    0.786698
H   72.639709   49.498672   89.173424
H   78.036194   60.507195    7.616536
H   82.707573   63.733490   67.159370
H   78.062462   50.680649   31.365829
H   82.032127   93.048271   20.269278
H   90.254265    0.542670   17.053543
H   59.483253   56.959232   30.133257
H   45.820751   78.181160   31.679604
H   52.926304    1.978504   46.610306
H   27.792767   59.918865   44.906338
H   21.824875   16.748552    7.921292
H   12.180562   64.153580    9.346741
H   72.399200   14.598535   91.389053
H   47.200150   27.591309   65.434998
H   76.559334   65.253227   83.745735
H   37.231007   31.620632   28.554632
H   56.245235   96.504303   75.322250
H   68.213554   23.421970   40.126259
H   28.175863   32.408443   76.040787
H   43.532223   59.121475   54.573215
H   10.430501   53.625107   66.907516
H   11.140394   22.640747   96.539070
H   74.160812    5.423813   36.625629
H   32.082123   68.061172    1.331094
H   93.702621   12.417759   88.916183
H    3.162777   86.401665   66.354240
H   17.943419   66.592842   10.747341
H   98.874474   43.374527    3.115058
H   51.828865   36.166092   60.502319
H   66.576523   73.500839    5.897935
H   95.042511   26.930801   90.422379
H   81.626732   99.720085   26.080292
H   50.524696   42.387413   24.181379
H   36.648010   52.139141    5.711777
H   94.649452   36.854450   52.630795
H   78.823174   52.129757   72.324753
H   72.836357   23.771225   71.413429
H   62.336655   41.954277   53.397190
H   32.594894   53.626991    1.501555
H   18.571520   87.987923   60.840122
H   64.978416   47.908043   64.603310
H   99.884247   12.915707   58.954723
H   27.791786   42.482273   96.730415
H   67.425583   28.798792    9.660705
H   28.234777   14.558046   88.595383
H   76.851959   17.096752   92.960754
H   37.101349   43.593021   20.459595
H   66.779030   53.180836   18.903843
H   94.179886    3.017378   11.530672
H   13.015097   30.408728   86.503494
H   49.502430   44.939407   77.666077
H   24.692787    9.076684   40.281494
H   57.669006   21.488865   53.474251
H   47.023384   42.067123   37.185860
H   48.789249   13.053451   49.353962
H   74.434578   95.427727   28.740734
H   57.709854   96.567375   94.605156
H   57.945259   88.103554   27.309208
H   56.697945    4.802240   28.108381
H   28.483309   79.316605   35.763622
H   86.351524    3.704507   35.601715
H   92.278008   30.897497   27.347448
H   57.763855   19.843851   34.168240
H   54.707233   39.966373   18.591972
H    2.924532   91.427299   61.818932
H   53.950310   73.935707   30.920219
H    7.265565   17.165741   54.291191
H    3.519594   37.320148   35.921291
H   46.010784   75.903145   87.187607
