100
TIME:    1.102, STEP:  1102
H   42.798256   20.962196   98.137100
H   70.616096   64.495537   47.514034
H   98.698334   53.186138   10.400581
H   81.661575   87.247032   79.759514
H   85.300537   61.087685   35.824760
H   10.927902    0.014281   87.880363
H   95.215126   35.750141   76.630608
H   33.271271   83.938889    7.011417
H   26.538734   80.340530   30.719713
H   44.724617   32.206444   50.844627
H   97.749680   10.583802   33.599510
H   13.778957   78.928352   14.487566
H   73.163208   95.034691   15.599338
H    0.517425    1.679573   41.103199
H   93.904854   71.589386   97.799423
H   57.215363   15.347324   41.564926
H   35.467369   54.874008   73.689857
H   24.693451   41.110504   61.342087
H   62.424194   24.583239   21.420626
H   62.826004   82.412460   91.361961
H   98.882401   46.510284   27.334427
H   68.014763   45.554451   25.421841
H   71.030739   85.659721    0.819654
H   16.653824   49.898502   25.230194
H   90.170647   98.777473   44.693237
H   41.606022   94.773758   85.882370
H   67.053070   96.667557   21.834173
H   39.557381    7.877001    3.198514
H   35.133041   49.073856    5.080820
H   43.248363   63.565414   70.994499
H   59.451298   20.865828   22.209023
H   35.338017   22.066017   97.246437
H   47.981617   87.855034   97.073814
H   24.664116   72.731026   25.325365
H   53.379890   75.617348   91.833282
H   68.369476   71.052200   16.852507
H   85.495018   64.178566   95.298714
H   18.444122   38.784435    0.207483
H    1.177552   56.983543   36.505577
H   59.396530    9.017315   24.736792
H   59.930618   93.994759   68.307175
H   32.579704   61.318092   54.573902
H   20.733007   70.108307   81.071449
H    8.989550   31.239195   88.481697
H   61.064186   88.411697   50.410362
H   63.870159   83.935738   87.646645
H   47.716175   85.187454   37.039742
H   56.298267    6.729547   36.763424
H   97.244743   41.181229    0.513725
H   49.002254   47.522541    6.590366
H   43.460545   63.252586   65.036179
H   58.687859   61.482548    1.716545
H   31.739061   28.398499   38.867340
H   51.171032   89.224434   80.445145
H   53.030487   55.112766    9.757338
H   94.945084   11.373796   55.112122
H   66.112305   57.749275   60.796822
H   44.001160   72.817314   85.169998
H   77.188881   85.330353   26.881866
H   86.298126   12.490644   32.266075
H   29.216089   27.323631   28.475250
H   59.799011   17.688095   45.493645
H   48.981422   32.005898   57.956642
H   18.711218   47.789093   97.219215
H   76.063560   72.829948   98.187996
H   33.647591   87.489449   11.344341
H   99.152573   86.461517   20.267090
H    4.243030   80.561386   18.884573
H   11.824745   70.603638   91.116524
H   52.709145    3.569824   99.412628
H   87.038246   20.421019   48.930668
H   83.101944   14.952431   37.304794
H   35.139847   63.795025   33.491825
H    5.935931   79.643463   37.713463
H   15.304166   30.211714   84.936699
H   51.712765   78.201195   21.779369
H   67.010338   31.032785   10.533562
H   83.754288   78.664345   75.300217
H   14.373522   50.274265   29.976151
H   45.481430   48.937622   25.982788
H   32.447216   40.682354   45.852230
H   24.006737   51.424454   94.628494
H   87.523735   25.649950   34.859837
H   25.977362    6.461159   62.774513
H   98.670593   79.953705   40.925850
H   25.928371   49.533993   18.309669
H   40.754814   23.228554   76.090668
H   73.695190   17.065662   84.286659
H   78.551949   32.813988   19.183960
H   68.906021   63.938202   63.609051
H   69.120918   32.936932   56.733959
H   59.823795   78.387169   54.518959
H   55.990196   60.648544    4.168308
H   53.740959   80.077751    1.121380
H   37.540043   51.019829   41.408623
H   84.942245   52.213982   10.529285
H   75.130875   30.921797   73.811981
H   10.911319   25.620544   38.404343
H   56.215263   41.600582   52.741146
H    7.679367   50.398327   91.547310
