100
TIME:    2.866, STEP:  2866
H   23.506248   59.194511   96.522110
H   21.547310   60.136223   58.786396
H   29.018728   80.095779   89.695900
H   81.957657   14.570856   83.068298
H   69.500549    2.480048   87.996201
H   83.577644   98.103142   62.576359
H    2.764109   54.864716   14.577872
H   94.624344   36.547176   45.047810
H   83.176186   10.739229   19.682163
H   96.521629   57.534874   19.918657
H   33.666687   81.562363   63.680874
H   46.454559   67.348465   88.924400
H   60.954796   88.310272   40.271835
H   13.173503   96.242043   75.344490
H   15.361641   14.024743   13.005731
H   86.288330   61.058258   95.138039
H   93.640388   71.533325   34.291637
H   62.390015   55.327095    0.184291
H   89.905174   98.583878   14.355181
H   15.304916   44.951534   11.463190
H   94.204224   70.898651   79.453827
H   37.146561   47.888641   75.211914
H   47.478798   71.313225   50.351151
H   52.759064   71.054871   94.219063
H   27.078888   58.872139   57.707367
H   33.517612   42.211407   20.541533
H   14.940056   23.340330   56.839085
H   90.717308   90.214912   61.508816
H   73.489059    9.118144   21.694643
H   10.888947   19.906845   11.227558
H   28.849638   79.054932   82.630150
H   46.718117   73.325493   33.944069
H   72.235565   58.791969   55.988869
H   99.195915   11.070919   51.010605
H    9.529954   42.272583   99.249046
H   21.742039    9.623640   10.787972
H   54.685104   99.575668   34.294796
H   45.533401    6.498168   24.687397
H   24.097458   18.971521   66.575546
H   93.248398   43.878128   63.526356
H   39.380566   54.521198    9.867911
H   74.041405   40.486359   37.447739
H   35.927372   80.686493    8.488223
H   96.346191   60.806801   60.955399
H    8.051714   18.814358    1.361850
H   41.112255   17.581348   94.806435
H   64.125290   80.700226   52.971336
H   56.392475   24.891459   45.909752
H   48.804245   95.088005   30.147615
H   85.990990   74.366554   83.212677
H   43.325962   92.949371   83.635483
H   44.414417   97.795441   85.914207
H   68.330452   38.626770   36.416473
H   10.325237   60.449028   58.284943
H   12.597218    9.752707   24.724993
H   97.152237    9.519922   95.061401
H   77.943153    6.849561   28.568001
H   12.648128    6.229042   39.734940
H   16.312576   59.864361   91.458824
H   69.891281   48.078953   82.094734
H   40.490547   45.289028   90.940201
H   97.194664    1.266008   65.679047
H   68.634239   11.712179   36.940262
H   39.842522   57.384827   49.330631
H   46.079311   31.941032   62.467155
H   25.282143   99.795601   15.645134
H   57.624092   47.446705    5.432198
H   82.391457   81.446472    3.213973
H   99.741875   43.853844   80.482368
H   88.450012   92.294014   95.698151
H   31.024883    0.396628   27.769730
H   37.652405   56.408173   66.458038
H   20.123144   76.541557   88.262199
H   67.120720   68.014572   32.873650
H    0.353871   32.723614   18.660252
H   93.410393   91.256340    3.084756
H   27.168840   78.141495   41.736393
H   66.630219   63.321354   72.719437
H   98.949127   45.100384   49.657364
H   58.971321   52.866421   74.012772
H   66.966476   58.931744   51.282612
H   56.364166   62.944717   47.124611
H   99.130936   55.095154    2.872301
H   47.326084   57.408905    1.652713
H   12.778649   69.615601   69.925896
H   85.330017   14.326550   40.807034
H   58.568382   94.971367   60.205261
H    2.091608   75.835571   65.938179
H   15.160175   34.597343    4.752229
H   12.945280   91.359451   26.670879
H   41.311157   28.187950   93.986404
H   90.346054   11.046080   88.133873
H   69.170776   13.510277   40.636620
H   24.237347   87.076988   20.058704
H    7.038189   93.010315   81.944878
H   30.641464   82.556404   19.416565
H   35.112381   32.154263   72.363243
H   17.387381   40.639954   10.177879
H   72.183861   49.204494    4.979602
H   17.229876    5.088582   21.648371
