100
TIME:    6.879, STEP:  6879
H   52.123367   91.183723   92.848099
H   10.495319   77.627464   11.847827
H   98.013382   68.806816   42.593410
H   82.631226   49.236053   63.103024
H   33.556473   24.139524   79.187668
H   21.343403   93.755562   59.997417
H   92.442078   25.840427   28.399912
H   79.210457   83.722748   76.587334
H   84.528923   24.905701   67.079613
H   86.869576   15.157131   77.058418
H   60.387207   43.033939   77.128914
H   93.287506   68.499374    3.274775
H    5.103470   45.601963   41.489433
H   14.474398   83.872871   80.735222
H   64.158333   55.566643   20.091969
H   24.934433   10.066559   62.023926
H   70.938820   36.962940   99.610847
H   48.171688   60.106888   61.062210
H   52.406300   66.937744   25.774563
H    7.186951   59.726429   84.686943
H   56.067108   71.391754   70.532906
H   21.876770   53.215958   33.467865
H   93.897636   38.675758   35.535095
H   79.900063   19.121065   96.178772
H   83.552193   40.621284   87.342873
H   15.172192   23.307499   43.538574
H   68.895958   56.526718   36.458271
H   52.111137   77.528175   94.155045
H   60.748146   73.208748   31.997255
H   64.764496   20.584862   30.248917
H   86.787437   38.908859   65.134422
H    0.101653   62.448872   62.440575
H   54.905392   65.181953   17.511602
H   68.755882   43.303360   81.950363
H    9.756586   38.833199   43.575897
H   70.617409   24.221714   97.799049
H   39.584633   52.611938   50.503574
H   79.670067   33.063877    7.874249
H   54.709103   31.533461   77.686249
H   15.268879   68.195175   79.260422
H   65.120667   92.219231    4.411672
H   20.489456   68.579147   31.145645
H   70.487946    4.753019   98.352165
H   40.095844   28.106405   53.327240
H   59.952545   60.479702   44.765079
H   89.329704   94.123245   11.107927
H   95.476852   98.940750   91.495979
H   56.607479   66.221451   94.211487
H   66.107246   62.730076   70.069687
H   70.165283   35.436214    2.551730
H   43.029247    5.520172   25.941357
H   39.446491   25.419006   22.472908
H   51.564571   61.895508    3.346562
H   17.391510   94.963989   35.366776
H   93.078323   61.448547   58.859417
H    2.163545    5.297683   58.449402
H   32.350567   91.055595   10.237638
H   13.831351   27.251081   36.369125
H   32.809052   29.427082   83.383232
H    5.076687   56.531925   67.955467
H   93.632835   58.664711   78.054550
H   54.768776   63.913315   84.101151
H   41.075909   37.872841   61.756775
H   15.407871   79.235916   40.375698
H    5.361191   11.429569   36.180698
H   78.759674    0.297982   52.924011
H   35.653885   86.186951   99.179520
H    5.186125   10.954402   95.058578
H   99.749153   55.505264   28.793659
H   69.749962   94.135185   87.247925
H    3.592367   27.354553   79.631874
H    6.778365   23.215645   60.278313
H   58.467651   78.044540   85.370911
H   78.774025   14.047932   94.427277
H   93.835686   38.448948   22.873138
H   88.280724   48.452763   33.060303
H   91.542572   30.405750   12.741545
H   55.168255    0.918786   94.340324
H   91.386757   33.312931   94.428871
H   62.172318   34.288460   28.289085
H   45.484390    0.448177   91.131180
H   57.490540   89.082092   11.507629
H   52.988304   22.159216   85.064514
H   23.414230    0.809735   35.126644
H   17.379148   18.599159   80.910530
H   92.968979   61.733612   19.482025
H   26.587648    3.193180   51.560661
H   66.662254   54.610126   24.253334
H   98.440781   11.160847   71.929451
H   58.143520   26.255009   70.122726
H    5.539726   44.877510   78.733688
H   87.275238   12.846078   64.594612
H   26.410511   33.923649   50.968208
H   12.095834   30.513758   90.639450
H   37.659416   33.550827   74.158569
H   62.098785   24.087282   12.139780
H   16.579836   62.451401   41.571976
H   24.999262   26.832645   40.785522
H   81.013451   66.507393   68.849739
H   66.490913    2.109312   35.064640
