100
TIME:    1.340, STEP:  1340
H   26.703341   99.136581   97.919205
H   63.995705   77.398582   62.527035
H    2.788383   70.309090    7.606039
H   81.701523   77.441734   66.714836
H   83.168793   80.164436   29.371422
H    7.237250   99.756371   11.450048
H   82.740608   51.821751   95.242516
H   14.564941    4.529688   85.159691
H   20.688240   57.457870   15.738481
H   38.220436   35.623772   60.165108
H   75.611496   20.160053   10.674242
H    4.694530   90.858131   97.546883
H   58.023819   80.635429   91.943993
H   88.732933    0.945821   59.215763
H   96.799232   50.331219   86.359909
H   47.646118   94.529716   21.809067
H   16.333256   70.613327   95.359566
H   29.779495   29.536621   53.091110
H   66.131279   34.568298   33.958698
H   56.414429   77.357285    7.566025
H   84.759140   22.815964   20.874733
H   90.835686   45.868584    5.155954
H   67.853096   83.724083   94.010361
H   94.540977   52.752934    7.553632
H   81.658195   79.900459   46.449112
H   40.514729   87.681259   63.573540
H   46.529396   86.775101   26.557058
H   19.476494   18.986370   11.065322
H   40.308060   70.667297   93.830467
H   52.374554   57.674973   89.915092
H   68.813545   42.209167    3.376443
H   50.365543   15.490985   75.213570
H   64.746780   70.441551   18.514738
H   34.719994   50.919685   15.299416
H   47.464027   57.626442    6.326187
H   89.062286   89.747635   16.033583
H    8.322797   55.462746   14.051932
H    8.607615   34.428341   17.002102
H   90.478745   51.902946   13.693780
H   36.980530   86.736946   43.462742
H   43.666534    2.161919   73.914352
H   11.189629   71.999062   65.755569
H   22.783041   71.535522   98.263405
H   93.791756   35.228325   11.752479
H   40.420403   79.020401   70.777542
H   60.799648   88.475227   88.612648
H   50.229237   98.025131   39.073433
H   56.310978    9.179964   51.489529
H    4.201869   21.470764   91.020676
H   53.993877   51.145054   89.943810
H   43.442387   40.275505   67.545609
H   70.254478   39.397022   86.093246
H   36.676208   29.778503   25.044144
H   45.660091   85.342262   90.947708
H   34.082657   75.977036   11.776957
H   95.242874   11.123671   47.010040
H   81.201569   50.881935   83.432533
H   26.278698   50.341393   79.039871
H   95.960579   95.386230    8.610420
H   70.591492   30.784788   25.496788
H   44.229259   16.256355    9.919483
H   51.351929   15.472715   34.724159
H   65.125534   15.775406   41.629005
H   35.054459   49.083755   90.758614
H   85.509331   53.821224   20.352434
H   19.026802   75.657722   25.416609
H   80.057663   94.690704   31.758354
H   87.802696   94.172592   30.262350
H   23.687180   53.502472   76.190681
H   57.530083   15.540829   98.911469
H   79.480904    4.226843   46.076237
H   63.476871    7.053265   54.730988
H   19.621330   52.023220   27.388935
H    0.697756   64.583252   23.568413
H   26.779060   30.550360    2.978563
H   57.339916   93.453880    5.765216
H   88.618309   10.404436   14.744846
H   94.935959   63.102867   88.442947
H   25.782167   49.577000   32.630150
H   33.809494   35.974655    5.479026
H   37.104733   43.144573   60.077175
H   41.864681   52.978775   74.727371
H    2.583756   29.622004   57.528233
H   42.350391   26.827127   41.035805
H   87.082184   65.067810   17.854347
H   20.450115   58.277050   34.837044
H   56.650291    5.924019   87.439392
H   77.526520   98.011139   81.813545
H   83.490913   19.563162   17.236519
H   47.864578   54.145615   72.117867
H   78.860847   45.787319   61.760082
H   77.433388   96.287285   59.053001
H   71.261040   67.780136   22.581095
H   76.744270   94.513329   17.168381
H   33.425449   29.700569   46.877800
H    4.600104   42.815422   98.235992
H   56.239334   44.580212   60.124512
H   11.785171   27.646973   34.596619
H   44.877434   42.626507   32.805523
H   22.459946   44.284542   68.624702
