100
TIME:    5.295, STEP:  5295
H   59.243080   36.442787   94.298294
H   54.239906   91.791489   11.971820
H   70.773880   54.847305   61.192165
H   82.365356   14.496174   49.926758
H   47.744217   97.175110   22.135574
H   45.912128   95.471626    3.127394
H   75.458336   18.880848    4.528935
H    3.709740   46.686176   22.024242
H   23.466728   77.200684   66.786842
H   30.140985   92.411720   15.035208
H    7.727020   79.298462   29.708622
H   53.747192   89.101784   16.025202
H    6.182053   41.391716   98.883965
H   92.904503   88.755196   60.193047
H   44.906548   97.057053   96.245850
H   88.622849   48.609024   93.509491
H   98.314613   32.193813   55.413086
H   14.297696   37.181431   15.973883
H   27.739849    0.483244   42.322582
H   49.858948   93.369423   76.840858
H   50.063911   29.083351   13.529278
H   70.017151   51.113174   68.360123
H   15.048013   51.558327   80.853699
H   27.075813    0.171845   13.820001
H   40.203888   66.240784   75.644630
H   22.408724   70.126236   92.500107
H    5.484709   22.369602    5.026202
H   85.765022    3.592389   41.797867
H   26.306007   29.495531    6.875244
H    4.027676   59.788475    4.326281
H   24.446274   96.868866   90.455391
H    0.086890    6.218662    9.079338
H   43.330151   81.075157   74.812370
H    1.827284   88.467644   48.680763
H   49.152374   58.658707   47.155968
H   32.922504    0.155376    2.779455
H   87.658356   10.620804   25.690472
H   45.139278   62.055698   96.095695
H   21.568104   66.048027   31.187059
H   64.462624   16.482880   54.634731
H   73.376068   37.866890   67.093605
H   55.736046   49.501030   51.560101
H   56.849773   95.252487   83.937141
H   41.239567    1.519147   98.453537
H   97.353966   22.978729    9.217715
H    9.774061   63.910847    4.672641
H   83.101852   12.797803   76.293098
H   56.522198   49.906754   96.202553
H   19.809212   93.918457   33.253883
H   36.929798   11.324636   13.325577
H   43.140644   58.445496    9.244761
H   62.459465   72.403641   26.454895
H   18.705563   52.710938   95.343376
H   54.069366   20.809509   65.470116
H   19.199245   22.633184   45.384686
H    0.190613    6.963897   12.372513
H   31.931816   36.761909   59.586021
H   31.778469   76.840141   77.167953
H    7.882772   62.495804    4.982559
H    9.604265   34.779598   13.008186
H   93.712921   32.330418    1.556853
H   10.986994   78.656967   55.773834
H   33.537601   45.962082   70.376404
H    6.637275   70.607254   83.380630
H   42.490448   37.941174   88.669044
H   76.065819   79.042992   59.265053
H   62.740784   31.425034   22.705151
H   14.604064   20.364126   19.334219
H   20.803579   69.321404   28.139282
H   37.662224   14.464880   90.583374
H   53.892769   35.128677   98.629433
H   37.370232   75.794144   44.297188
H   61.747513   56.392418   25.984039
H   13.646580   14.298855   88.543022
H   17.464949   36.189060    2.794511
H   50.837265   46.933083   39.643101
H   47.706966   67.611763   84.693108
H   80.749054    4.492830    6.861778
H   15.428395   37.965641   76.760658
H   39.849411   20.574524   64.752258
H   14.486614   84.060867   96.459160
H   38.616325   78.807938   44.013206
H   52.796356   95.670471   34.212826
H   14.437876   65.263718   79.800293
H   94.506081   17.678909   34.461449
H   29.426647    3.547480    9.484120
H   20.795813   18.363297   76.029526
H   41.186615   81.364456   40.677917
H   65.569687   99.355629   84.884529
H   98.189026   91.424118   13.501539
H   40.715904   59.345005   45.282513
H   70.075279   93.714264   34.418228
H   24.873034   86.397011   28.475056
H   59.008614   34.414623   83.832909
H   65.043938   75.436241   37.758671
H   31.266907   86.638275   93.955109
H   42.309868   71.549919   32.668945
H   26.301176   61.321442   71.301781
H   56.471466   59.674961    1.524390
H   68.102554   42.755260   87.656464
