100
TIME:    2.883, STEP:  2883
H   22.356655   57.635521   96.506546
H   21.074425   61.057999   59.858753
H   29.310942   81.318848   89.496422
H   81.960510   13.870413   82.136536
H   69.348282    3.842665   87.535248
H   83.314095   98.084724   64.259972
H    1.873153   56.012688   15.907294
H   93.288177   38.017841   43.486874
H   82.758293    9.104721   18.612076
H   96.057045   57.778969   20.584406
H   32.085388   82.246399   62.043415
H   45.805672   68.200592   87.714302
H   59.873489   87.281754   38.582237
H   12.331784   96.189644   76.638115
H   15.568447   12.506251   12.188525
H   85.604813   59.571381   93.726906
H   92.273354   72.657822   35.839214
H   62.753304   54.500389   99.594910
H   90.170021   99.296967   15.250757
H   14.846947   44.590580   12.620630
H   93.195419   69.206329   78.992355
H   38.776367   47.911209   73.764206
H   47.251823   71.174965   49.864777
H   51.179581   71.258759   92.956566
H   26.470921   57.523911   57.832787
H   33.439663   41.704929   18.948107
H   13.474125   22.633661   57.176434
H   89.282829   91.008415   62.070805
H   73.858704   10.660501   20.891088
H   11.540786   19.486099   12.578964
H   29.518694   80.579422   81.285164
H   47.791512   72.855721   32.370293
H   73.432953   57.548149   57.520363
H   99.914192    9.512999   50.294403
H    9.107360   40.987518    0.284280
H   23.220161   10.959093   10.729543
H   56.315559   98.953110   35.634335
H   44.830818    6.187034   25.886990
H   23.379829   18.601164   64.928101
H   91.647125   42.286583   64.863869
H   38.218716   55.104458   10.268392
H   72.513542   41.249382   38.246429
H   36.073803   80.788437    9.716123
H   95.260605   61.091751   62.617500
H    6.577093   18.143681    2.816627
H   40.892933   17.905598   94.875435
H   64.258102   81.624725   53.134628
H   56.393383   25.066488   46.961617
H   49.301125   93.679985   29.469481
H   86.347404   74.625175   82.023590
H   43.324665   91.308151   83.814728
H   45.240604   96.218033   84.798271
H   68.682976   38.725342   35.429070
H    9.931599   60.171600   59.035126
H   11.243704   11.242568   24.869543
H   97.173508    9.502056   94.482681
H   79.020958    6.359004   30.184837
H   11.382291    4.623570   39.297073
H   17.653282   60.582638   90.153786
H   68.769379   49.385677   81.611214
H   41.562904   44.498508   89.614670
H   96.591301    1.107742   64.909927
H   69.788307   10.552113   35.774521
H   41.009949   57.477303   48.869030
H   46.754139   30.583271   64.050392
H   24.237801   98.950478   16.650253
H   56.260170   48.034374    6.252986
H   81.217155   82.418701    4.026671
H    0.589143   42.632332   79.416237
H   88.794495   93.148994   95.662354
H   30.485008   99.239952   27.565777
H   36.250740   55.843979   67.702637
H   19.014666   75.700584   87.826408
H   66.746666   66.938843   31.863289
H    1.173492   32.747868   19.949013
H   93.812202   92.345818    1.940894
H   28.712332   76.668106   42.037037
H   67.428909   62.209698   73.658203
H   99.764420   45.050449   49.847115
H   58.137611   51.940495   72.548203
H   67.299026   59.107616   52.298679
H   57.639763   63.055740   45.703102
H    0.206424   55.378937    4.491445
H   48.495586   58.863617    0.100057
H   11.950873   68.552322   68.277931
H   84.938843   14.950989   41.987560
H   59.703773   93.735329   61.015884
H    2.365210   74.474503   65.761269
H   15.512991   33.650795    4.613142
H   11.442223   90.660110   27.278587
H   42.006866   29.105900   94.345413
H   91.603882   12.324497   88.457863
H   70.260513   14.020418   41.951256
H   25.880512   88.108101   21.204926
H    6.744241   91.487640   82.335533
H   32.045593   81.885078   18.538498
H   33.762985   33.129864   71.385567
H   17.449766   40.784698    9.905867
H   71.374016   49.277775    3.555613
H   18.285761    4.652386   20.010717
