100
TIME:    1.516, STEP:  1516
H   14.801634   82.996445   97.758072
H   59.099953   86.940331   73.629082
H    5.813422   82.971443    5.539477
H   81.731064   70.190758   57.067387
H   81.592377   94.271614   24.599205
H    4.507895   99.565697   28.880007
H   73.515755   63.706638    9.006035
H    0.731686   19.755611   69.000755
H   16.361824   40.536240    4.659593
H   33.410622   38.150871   67.056969
H   59.240402   27.241840   93.720825
H   97.977081   99.680153   85.018806
H   46.829117   69.987236   74.450340
H   80.018333    0.403213   72.609062
H   98.939613   34.611370   77.900436
H   40.569702   79.136162    7.199885
H    2.183364   82.252487   11.383800
H   33.540604   20.977783   46.989548
H   68.873222   41.952209   43.230549
H   51.673096   73.619003   19.548929
H   74.315048    5.294139   16.097816
H    7.711814   46.100883   90.170204
H   65.503242   82.292686   88.974960
H   78.188683   54.863773   94.482422
H   75.363274   65.940987   47.747574
H   39.707722   82.436386   47.077568
H   31.352058   79.459671   30.049612
H    4.626724   27.201458   16.882887
H   44.134964   86.635559   85.510643
H   59.123333   53.319016    3.906628
H   75.736885   57.992126   89.449341
H   61.478336   10.628467   58.920357
H   77.143265   57.564354   34.370209
H   42.156273   34.790291    7.884959
H   43.089272   44.322243   17.042862
H    4.364706    3.573025   15.427979
H   25.203472   49.017433   27.920050
H    1.333479   31.207027   29.421413
H   82.567123   48.145866   96.824982
H   20.403521   70.261116   57.310764
H   31.639313    8.200881   78.060837
H   95.371735   79.897255   74.024368
H   24.299032   72.590942   10.976020
H   82.552742   38.178398   28.960791
H   25.154110   72.075577   85.838089
H   58.529018   91.832161   89.327003
H   52.087635    7.519467   40.577339
H   56.320377   10.992037   62.379421
H    9.346158    6.894946   84.000656
H   57.685162   53.823887   77.633263
H   43.428959   23.283705   69.401321
H   78.807945   23.065237   74.540024
H   40.327209   30.799011   14.822281
H   41.584774   82.471413   98.714310
H   20.070816   91.405502   13.270456
H   95.463089   10.938704   41.018585
H   92.360016   45.803566    0.171549
H   13.172630   33.720543   74.506668
H    9.841248    2.822665   95.098999
H   58.977085   44.313229   20.490929
H   55.331310    8.071826   96.197075
H   45.105347   13.834196   26.760170
H   77.062790    3.773085   29.554787
H   47.140762   50.041153   85.981026
H   92.494438   39.763729   36.743191
H    8.215033   66.908211   35.823101
H   65.937057    0.776045   40.255444
H   75.645226    4.238265   38.676167
H   32.459518   40.856232   65.153084
H   61.095146   24.393080   98.540863
H   73.892281   92.251747   43.965397
H   48.965519    1.211864   67.617210
H    8.145317   43.318020   22.875874
H   96.825005   53.445015   13.108208
H   35.264458   30.800787   16.320969
H   61.501171    4.733523   93.922386
H    4.597535   95.150131   17.858679
H    3.204768   51.593956   98.161942
H   34.218811   49.061375   34.593285
H   25.178146   26.388990   90.316505
H   40.548946   44.965374   70.596458
H   55.070858   54.128189   60.010574
H   13.719962   32.559448   74.291412
H   54.458179   41.887676   24.960121
H   78.512604   54.058540    0.793354
H   16.398968   64.742348   47.058968
H   68.404930   93.127365   95.831726
H   80.359772   83.920074   79.984688
H   87.143257    9.764058   15.796442
H   32.303383   46.904037   78.410103
H   86.063484   55.290127   65.476883
H   90.455605    9.523870   62.405907
H   82.553764   73.054550   36.197281
H   93.754524    5.188758   29.035141
H   30.382366   13.935066   50.922234
H   19.137009   35.865227   89.145416
H   42.269119   54.680553   50.002686
H   12.431380   29.145508   31.780769
H   36.493156   43.385174   18.063213
H   33.390121   39.763424   51.673531
