200
TIME:    0.664, STEP:   664
H   22.499769   61.067829   22.589714
H   31.743414   39.068077    7.110131
H    9.251021   87.696564   66.232475
H   32.134933   81.929573   33.412201
H   10.708426   94.475464   47.562401
H   75.825134   41.306969   52.999580
H    9.502227   55.003288   57.858212
H   12.390229    7.195097   10.022290
H    4.647380   81.149719   37.375942
H   95.935623   68.959679   79.348213
H   26.972254    3.651608    6.360466
H   32.531097   53.340012   32.944908
H   21.580730    1.079645   43.913994
H   84.363350   54.995815   62.697201
H   99.151138   75.208565   41.935349
H   16.941593    8.496487   45.176430
H    4.153260   27.576515   94.845985
H   26.494110    3.550119   35.971813
H   79.132660   14.351725   48.725502
H   91.405190   73.881920   21.034382
H   63.173515   97.923965    6.415319
H   80.589699   65.021034   54.235397
H   82.308372   59.458633   38.962563
H   17.589020   91.924843   90.256554
H   21.675705   29.756628   30.280895
H   18.310110   81.153336   92.952827
H    7.106752   67.304451   66.129593
H    4.241135   87.620338    1.846939
H   28.926655   43.642036   35.855606
H   73.889328   32.122768   83.959030
H   12.807926   69.163368   16.713200
H   24.215755   73.443832    4.042227
H   16.878487   18.108973   78.358170
H   82.393715   64.040504   45.701370
H   27.640974   72.280991   30.993677
H   19.211189   40.254562   84.338478
H   98.434021   65.277573   89.138039
H   11.942365   55.723118   96.103729
H   37.377930   31.217827   53.856407
H   86.016525   37.944897   47.133881
H   80.630470   85.416916   15.597865
H   34.443558   34.215866   27.258537
H   69.067581   78.041756   66.072365
H   36.336685   83.827034   33.912464
H   43.264160   89.231369   59.664818
H   35.093086    2.803963   47.299175
H   87.964264    5.439326    5.475163
H   79.793373   65.544136   32.404984
H    3.477932   12.662037   61.472027
H   46.944271   19.714926   87.774780
H   68.121933   65.129478   11.065354
H    4.930111   42.995831   72.657570
H   63.612320   82.295616   13.469885
H   16.096184   91.131332   87.982033
H   59.251877   66.955307   77.060768
H   99.870293   61.904358   92.532257
H    4.220443   18.349953   45.106373
H   72.041000   68.436020   97.650444
H   19.234339   82.668137   17.381351
H   33.296803   93.608315   59.156158
H   49.046318    7.104052   29.848454
H   97.556877   17.429308   52.316566
H   83.128403   33.989746   70.580353
H   34.399345   65.757256   13.134239
H   78.164230   82.399994   35.267811
H   22.107168   33.033806   40.484634
H   70.337257   14.218318   94.595131
H   94.967033   92.413918   95.666023
H   31.604227   11.582999   56.613167
H   42.796261   49.020031   50.959949
H   58.279160   83.925568   84.622772
H   20.224072   12.677041   41.796841
H   90.950821   32.993298   85.297943
H   21.678801   99.644890   72.916420
H   84.307877    7.735152   47.676254
H   64.030861    4.107542   60.106812
H   93.635468   45.734711   66.148140
H   10.850922   13.690748   33.468880
H   14.754101   48.583508   25.547649
H   61.886700   88.302261   74.153717
H   61.363644   22.936018   94.838837
H   45.280361   60.965031   74.749565
H    9.345485   18.317225   77.874016
H   10.847452   75.724220    7.670554
H   23.809494    3.807464   45.766296
H   36.612442   70.939240   18.956497
H   54.858421    3.667631    2.743388
H   71.805489    2.763541   27.434544
H   78.663651   73.089218   78.697754
H   21.320442    5.052298   50.200832
H   23.469254   38.553043   78.868561
H   81.101997   92.255554    7.619397
H   67.401840   12.080162   83.654083
H   41.014957   79.200676   80.746941
H   35.868401   51.190788   85.598900
H   51.713234   37.189064    9.126143
H   85.057182   99.613792   16.589745
H   95.239006   35.026947   52.608036
H   27.410362   65.530655   54.383842
H   74.576683    4.816926   27.353922
H   28.783598   92.149536   88.905373
H    6.338547   83.071304   63.525795
H   31.968519   21.674417   36.427700
H   42.249474   68.722321    7.000186
H   24.776682   21.900681   38.834087
H    4.209055    6.013956   24.039705
H   85.743568   35.361523   54.285965
H   62.252750   50.553825    2.346232
H   83.571892   34.737572   19.635151
H   17.987123   22.148676    7.612429
H   52.773064   92.382271    1.094166
H    3.018846   74.007507   95.340813
H   49.729874   85.194885   84.712776
H   61.787895   10.256432   64.020142
H   49.700966   99.624451   11.905925
H   96.734901   93.394112   98.062134
H   15.142241   14.413054   89.122971
H   38.619930   47.866199   25.503166
H   34.964531   73.632370   62.584324
H   81.972023   55.137264   65.159744
H   44.979866   24.577000   73.626091
H   99.994415   17.435780   60.660179
H   42.458565    3.939970   36.607403
H   97.830475   52.061241   99.297600
H   64.229240   98.454155   78.790001
H   63.256161   73.952881   17.344755
H   84.847450   51.169662   54.679886
H   66.154320   90.895409   38.583569
H   97.685555   37.135860   75.227730
H   88.296280   22.139687   73.725060
H   65.724617   70.046539   19.614773
H   65.425407   90.256699   19.325947
H   91.053230    3.223330    0.529318
H   80.130096   23.873898   54.925518
H   25.372013   93.703522   36.933304
H   51.065170    1.082686   77.435081
H   69.594681   87.644966   76.446144
H   94.834923   50.982273   76.498970
H   57.395874   50.263138   71.449806
H   43.677620   88.755028   83.676117
H   71.608688   50.599884   28.606323
H   37.719131   53.893669   56.131016
H   41.375404   64.564980   85.082916
H   38.284492   11.179611   85.150551
H   60.231930   55.705124   62.933170
H   61.475563   69.280502    9.539314
H   54.759331   94.920982   44.245975
H   31.074867   57.635796   66.392357
H   76.520233   47.089561   93.729431
H   22.977852   93.303886   74.129929
H   61.275452   68.510757   48.143299
H   51.635727   95.377434   34.865128
H   95.872833   15.984524   88.580643
H   21.118103   10.875093   65.474800
H   30.425739   65.076675   68.423759
H   76.088951   44.580235   67.105927
H   63.749493   73.599442   85.776291
H   52.074234   29.856979   19.657589
H   92.976036    0.136725   86.880440
H   58.926044   39.643768   94.512436
H   58.120834   67.183739   72.142387
H   23.696421   20.859020   31.870789
H   83.470451   16.083622   37.055752
H   26.838293   32.635502   53.058655
H   54.894432   36.475418   13.990644
H   19.218826   50.948299   59.984043
H   67.598747   90.709053   56.716541
H   24.002605   50.223671   65.545670
H   99.834251   26.791349   35.855743
H   45.822289    7.260030   85.628693
H   71.264893   10.676162   35.940491
H   31.515451   49.698326   58.760147
H   45.865234   59.235065   78.493851
H   66.004868   64.396355   84.076492
H   51.731079   91.846970   79.294960
H   13.998082   49.951134   23.693529
H   31.062000   66.166565    4.644317
H    5.487841    9.605217   70.301834
H   64.758308   11.522752   64.175797
H   66.131157   59.003319   92.366264
H   73.676788    0.383590   31.861065
H   27.779837   30.623623   85.094986
H   46.112591   89.720306   14.467056
H   60.714554   26.004940   92.788795
H   91.006058   69.944183   76.650009
H    8.136703   39.801529   86.076271
H   46.115906   97.261971    8.659979
H   70.051117   85.184517   40.362892
H   94.339272   63.064182   71.389236
H   57.323868   55.966854   71.059952
H   68.075043   16.996361   76.273628
H   44.177055   96.451782   19.223783
H   13.518455   27.611137   67.519478
H   27.696199   80.452698   41.858173
H   70.344193   35.316830   20.429337
H   76.363297   11.423859   23.757366
H   12.279655   97.120811   17.777815
H   16.587088   88.979362   35.009041
H    6.259173   12.798281   59.054298
H    3.585466   20.627689   91.858109
