100
TIME:    7.398, STEP:  7398
H   17.025824   43.588661   92.372940
H   96.162613    5.749646   44.573162
H    6.935749    6.146067   36.499500
H   82.718338   27.853527   34.652897
H   28.906519   65.739662   65.115051
H   13.293756   93.193291   11.394516
H   65.239243   60.887341   68.986389
H   38.418083   28.623013   28.933922
H   71.770912   75.005814   34.408863
H   72.694008   22.609316   97.379372
H   12.111084   63.917164   27.137030
H   73.481308   94.514313   66.331337
H   72.003792   14.194771   89.913780
H   88.776817   82.273170   20.230831
H   70.462105    9.206993   95.133331
H    4.065161   64.672852   18.942270
H   29.204048   71.290039   46.857479
H   59.270603   34.852203   43.073494
H   60.487957   88.707932   53.115986
H   93.203476   48.706707   20.022806
H   25.268906   19.722771   56.446575
H   71.633804   53.904938   89.270264
H   86.968239   34.454765   20.684877
H   31.676733   25.329805   57.634827
H   64.989326   99.460709   91.175819
H   12.725124    8.009369   94.697639
H   24.140749   34.950554   46.757336
H    8.320407    1.753340   11.310229
H   72.033165   20.296442    7.465197
H   84.665726    7.739101   71.508446
H    7.212352   85.448517   24.072792
H   32.871395   48.110958   14.394112
H   91.461922   27.209105   64.267220
H   90.684456   95.740242   60.085144
H   96.839729   99.537651   75.152756
H   15.733301   64.871918   96.167671
H   89.363480   33.605591   91.398895
H   58.217720   23.564663   44.497108
H   32.800327   20.226664   27.390884
H   66.383614   19.607084   20.093367
H   29.650202   10.027715   16.638151
H   76.750755   70.614410   57.639767
H   74.954437    7.866299   35.838825
H    6.957230   36.817650    4.073142
H   14.934467   40.004322   89.176582
H   82.629967    4.021704   13.216444
H   99.531540   27.166965   96.477226
H   56.639156   71.566986   26.323833
H   81.280647   19.748013   49.365807
H   81.062256   43.335728   66.265266
H   42.993610   55.414505   31.411621
H   64.671402   77.259720   88.404022
H   62.330875   64.904846   73.205421
H    5.373955   86.498245   58.269424
H   51.755356    6.929826   63.274433
H    2.809959    4.751745   40.781418
H   65.251495   76.080177   59.598824
H   75.185471   78.237434   22.999994
H   73.739067   51.359615   43.541176
H   70.826103   96.422241   53.193871
H   26.372381   34.530609   37.589455
H   36.348457   59.082535   60.619820
H   76.311501    2.456407   26.167389
H   51.047810   82.063110   26.283283
H   25.961365   69.979248   84.512260
H   46.876526   74.496880   83.611343
H   94.012695    4.131533   24.238016
H   69.335258   40.637383   19.869781
H   25.617050   18.213226   96.242249
H   80.274300   20.227488   86.152557
H   87.111992   92.041901   73.407295
H   64.059044    5.956773   98.317268
H   24.628000   52.376255   72.066467
H   67.346458   81.199585   63.589478
H   18.840307   39.208347   62.223026
H    0.547882   81.715721   98.138435
H   38.679401   85.484810   21.945765
H   79.551819   66.984474   23.003038
H   16.275084   31.788464    0.218001
H   36.719650    6.015013   83.576942
H   55.642982    5.818063   22.151245
H   96.437050   92.447800   68.086647
H   85.815178   30.838781   34.491394
H   59.118923   45.222286   87.724327
H   92.108627   86.131798   30.599199
H   81.026657   80.795868   55.522812
H   61.250477   65.457603   76.308510
H   75.009209   13.078199   18.872162
H    9.212369   82.263695   67.684700
H   12.255841    4.900585   88.677673
H   26.779377   72.901253   89.694016
H   25.675982   51.879471   74.485832
H   59.679539   49.496975   91.103279
H   62.253502   62.000938   25.634546
H   28.686104   87.061691   86.085052
H    4.966074    3.593586   85.332466
H   75.383995   92.235931   11.722886
H   23.997469   52.511410   30.367357
H   56.289360   68.748558   25.377117
H   98.730431   88.789413   85.067505
