100
TIME:    4.127, STEP:  4127
H   38.229645   43.554352   95.367630
H   86.498207   28.499628   38.326302
H   50.694092   70.816994   74.899315
H   82.169312   62.617912   13.947646
H   58.205887    3.554751   53.804352
H   64.028450   96.737007   87.456718
H   36.674366   40.012821   13.189782
H   95.512230   45.639378   29.266407
H   52.178398   89.499084   40.307117
H   62.060402   75.640968   69.300507
H   16.371536   32.301151   42.215862
H   98.322731   30.555643   99.165215
H   80.714767   12.022106   14.942703
H   50.735878   92.355293   71.307404
H   30.701794    1.387434   52.392269
H   35.587418   50.766594   90.463806
H   92.238258   54.938610   49.085442
H   89.328453   94.004494   56.466297
H    9.547771   51.487488   80.788315
H   81.329063   18.174734   97.318016
H   19.374680   45.361912   45.228775
H   58.039856   49.562637   67.826111
H   30.642632   61.057594   14.271401
H   35.598503   86.178558    0.565299
H   81.979279   58.868767   67.018654
H   27.733126    4.649035    2.334658
H    6.202631   70.924210   81.855568
H   84.317444   49.074112    3.186669
H    0.908022   23.525620   62.086617
H   59.240570   88.696190   11.473434
H   78.479546   92.131828   82.863838
H   26.338362   38.486488   17.206963
H   61.058865   66.531349   69.589706
H   52.477341   95.507904   97.888039
H   78.184845   46.950615   76.033203
H   31.390295    8.673500    6.453852
H   75.631485   53.396469   33.656666
H   93.416313   83.425407   13.673098
H   70.872162   91.498222   44.375038
H   74.475563   25.827095   62.739254
H   53.200317   97.792847   39.576031
H   60.709885   97.079117   96.691803
H   46.789104   88.248337   99.571922
H   15.822180   81.935242   84.250732
H   98.669319   69.059174    9.269027
H   24.843708   41.633015   99.924629
H   73.976852   49.278465   65.082893
H   56.459820   37.876724   23.933266
H   85.666672   90.651886   79.847168
H   12.433093   93.550163   95.017311
H   43.229755   71.208214   96.931244
H    5.697615   80.784866    3.130981
H   94.479424   45.938477   63.181141
H   81.120293   39.870422   13.929687
H   12.196243   20.268457   35.448772
H   98.730026    8.192694   52.133987
H   57.884403   70.463814   48.499535
H   18.750725   87.143196    7.252552
H   15.764898   13.144379   94.650902
H   86.679459   45.003590   46.228889
H   20.034952   86.647484   92.622871
H   52.439323   89.528549    8.619468
H   54.243252   25.664249   50.469688
H   26.432760   64.244705   15.090679
H   96.129463   31.226986   79.898445
H   47.816933   37.107338   90.204254
H   56.451706   91.043915   66.313828
H   95.285500   53.565018   63.497066
H   62.593155   53.246429    1.393299
H   13.999777   55.719933   93.042847
H   90.980904   14.598574   12.641232
H   33.677353   14.558190   58.782436
H   37.903839   14.168842   55.934357
H   39.359692   88.214851   57.941582
H   61.148899   34.522678   14.252490
H   23.221666   72.075768   18.235123
H   41.659882   68.846481   64.037102
H   25.874294   80.866631   42.359215
H   59.415703   41.396427   63.732399
H   97.129211   84.188911   65.376488
H   91.633865   71.977371   26.649691
H   50.979378   71.180008   41.680664
H   78.912758   76.145172   22.976360
H   34.081398   65.315376   86.479294
H   51.378937   90.738029   47.686005
H   56.311535   60.648224   28.374756
H   42.787727    3.286410   20.334944
H   22.386404   74.876701   52.823792
H   41.331406   64.387398   94.437263
H    1.455795   39.480270   71.745926
H   92.916412   96.278236   20.616495
H   83.652634    5.873083   12.164762
H   50.002159   51.348518   38.151775
H   46.118473   63.567360    5.081499
H   85.236565   80.058311   10.921414
H   34.794891   32.759834   54.284065
H   35.020142    4.520764   99.841064
H   22.014921   51.376617   89.997337
H   12.112419   54.640171   99.356483
H   95.555595   72.725990    0.172559
