100
TIME:    5.176, STEP:  5176
H   67.290688   47.355721   94.407242
H   57.526497   85.343597    4.468444
H   68.727478   46.285828   62.589420
H   82.345383   19.399277   56.450005
H   48.810089   87.636734   25.361790
H   47.757885   95.600548   91.342705
H   81.695595   10.845188   95.222946
H   13.062904   36.391521   32.950794
H   26.391975   88.642014   74.277000
H   33.392815   90.703056   10.374968
H   18.796112   74.510208   41.170925
H   58.289406   83.136894   24.495436
H   13.775711   48.587715   10.708496
H   98.796761   89.121986   51.136765
H   43.459358    7.686473    1.965814
H   93.407471   59.017166    3.387531
H    7.883972   24.323246   44.580048
H   11.753085   42.971096   20.098917
H   25.886375   95.491547   36.053547
H   53.064735   95.897011   68.738777
H   57.125542   40.930511   16.759125
H   58.608505   50.955200   78.494080
H   16.636971   52.526146   84.258316
H   38.132900   98.748260   22.657990
H   44.460114   75.677475   74.765785
H   22.951193   73.643433    3.690684
H   15.746225   27.316284    2.664873
H   95.806374   98.037903   37.863945
H   23.718498   18.699263   12.500149
H   99.464828   62.733696   94.866158
H   19.762882   86.197433   99.870293
H   92.573128    9.506326   20.095772
H   34.947529   89.781898   64.091911
H   96.799255   99.373314   53.694176
H   52.110306   67.654160   39.910034
H   22.578329   90.834892    3.153736
H   76.244263   14.979168   16.313702
H   50.057362   64.233650   87.697639
H   26.591503   68.640984   42.719147
H   75.671532   27.623241   45.271580
H   81.509018   33.784073   64.290016
H   66.431084   44.159866   45.970173
H   55.824757   94.538879   75.341164
H   48.837765   99.521729   86.817917
H    7.676424   27.673470   99.034325
H   11.309544   61.641102    4.188845
H   82.172165    6.325882   75.150963
H   56.515842   48.681091   88.839500
H   16.331055    3.774271   38.001282
H   34.433987    9.513380   21.648277
H   43.149723   69.934036    7.990273
H   56.676155   83.445496   34.267357
H   16.236988   52.020935    2.254454
H   56.824837   22.751503   60.218834
H   28.674522   12.204532   44.372379
H    0.042372    7.089073   16.423553
H   24.388092   40.195580   48.268166
H   40.639542   88.078102   80.233017
H   98.497673   57.467865   14.118282
H   17.456860   25.632526   16.392830
H   86.206421   37.864056   10.834888
H   15.210081   79.764603   61.158577
H   25.458586   54.082321   78.536591
H   98.465736   69.959015   86.610931
H   37.766655   47.445957   77.587242
H   83.376213   84.958855   52.228844
H   72.288239   27.310894   16.959518
H   22.824211   13.558070   13.645331
H   14.872326   77.871986   35.603111
H   35.251755    8.479336   90.833954
H   57.671440   43.225311    0.056661
H   47.181885   79.743500   35.584091
H   69.506409   62.278320   29.035484
H   16.265865   21.830322   95.613731
H   11.727656   36.019283   93.773529
H   48.023689   39.305832   47.649853
H   36.902073   77.925484   82.588600
H   75.158218   12.274021    0.289651
H    9.722030   38.315182   75.433311
H   45.684471   27.056915   75.004242
H   12.158083   82.829758   89.346687
H   29.687149   78.030777   53.963768
H   45.268974   93.680359   22.879538
H    6.250906   55.080734   90.669647
H    0.300305   25.122765   45.997200
H   32.165775   99.176491    1.220226
H   12.848074   27.015564   70.355164
H   39.270950   90.891937   41.915382
H   63.100204    5.981230   85.857796
H    8.710294   96.319504    9.247810
H   35.845940   52.919811   42.769451
H   61.270481   84.764206   32.151207
H   17.244875   82.827156   19.272602
H   47.508270   27.195021   75.808907
H   67.101234   86.094963   35.024082
H   21.438004   91.337555    0.101579
H   51.755638   64.720711   39.512680
H   25.864477   60.308228   73.206551
H   62.140381   59.161999   11.492188
H   60.710850   45.808521   99.119583
