100
TIME:    4.449, STEP:  4449
H   16.454643   14.025280   95.072830
H   77.605080   45.949318   58.630638
H   56.228958   93.983345   71.120964
H   82.223358   49.351921   96.297615
H   55.321762   29.364473   45.073364
H   59.034061   96.388161   19.345278
H   19.798645   61.756763   38.370602
H   70.203667   73.496338   99.700798
H   44.263023   58.540192   20.037901
H   53.260628   80.264412   81.908112
H   86.419891   45.257603   11.199642
H   86.034492   46.695930   76.244530
H   60.167221   92.549828   82.947021
H   34.792122   91.362801   95.810181
H   34.618126   72.624847   36.912823
H   22.639904   22.603386   63.735291
H   66.345009   76.236847   78.398369
H   96.208183   78.343819   45.301220
H   14.563053   64.996506   97.754044
H   72.652122   11.336607   19.241190
H    0.266762   13.304890   36.490417
H   88.910309   49.990097   40.404816
H   26.343468   58.438789    5.058293
H    5.681212   90.040436   76.652069
H   70.462433   33.331734   69.396706
H   26.265268   95.130844   72.053917
H   78.437111   57.539112   88.242897
H   57.147350   64.103989   13.830785
H    7.910064   52.739925   46.865120
H   71.587769   80.726768   37.070900
H   91.151024   21.006241   57.388222
H   46.669720   29.590904   87.397850
H   83.739113   42.971931   98.598007
H   66.082352   65.998444   84.322334
H   70.181030   22.609978   95.642303
H   59.381535   33.893803    5.440784
H    6.516358   41.604477   59.029102
H   80.106102   77.534325   36.394855
H   57.280674   84.481987   13.171221
H   44.147186   95.682442   88.072510
H   31.193558    8.841146   47.162212
H   31.770370   11.530854   11.819344
H   49.562679   90.179276   22.830107
H   95.260742   87.330078   15.734742
H   70.737038   56.354782   36.823994
H   20.689487   47.774677    1.233496
H   76.492477   66.789574   68.173378
H   56.477016   41.193222   43.856819
H   95.080612   63.982334   67.003723
H   19.186466   98.448753   72.494606
H   43.205189   40.121574    0.326299
H   21.345343   50.905827   81.993500
H    1.156980   47.805542   44.478550
H   73.661858   34.615616   28.137810
H   86.558685   48.488171   38.187954
H   99.132919    7.853806   41.172348
H   78.298553   61.172707   79.124321
H   94.774063   56.734596   98.958237
H   41.159447   26.750488   69.931938
H   65.429306   69.753922   37.070442
H   40.347382   71.671654   67.515755
H   41.010918   86.531418   94.050217
H   76.103752    3.690953   28.389183
H   48.544891   65.998764    6.347408
H    8.910069    5.509358    9.884902
H   28.035866   21.099709    9.243110
H   30.617350    2.177215   81.859604
H   73.042854   71.980179   78.890526
H   78.640305   30.109558   81.199371
H   20.523451   71.915527   92.364807
H   80.756264   92.689621    8.778126
H    7.127217    3.871202   82.357140
H   16.908297   98.242012   47.677505
H   32.269756   67.839272   38.809074
H   76.674568   34.982075   38.662807
H   30.834871   92.711754   96.568741
H   70.896072   40.936733   69.731651
H   41.002438   59.812519   60.143013
H   74.857567   40.450611   67.324226
H   81.337769   66.653236   37.635826
H   97.932755   75.308609   45.894863
H   75.139549   73.282913   14.754827
H   99.282570   81.522278   53.644909
H   56.233147   92.869331   57.068680
H   35.700500   70.598289   16.471619
H   48.899776   72.475304   50.735321
H   64.293373   79.874374   35.689102
H   27.568739   49.096458   49.475357
H   48.013535   46.458656   91.803719
H   72.987869   26.231476   83.257858
H    6.094094   13.665440   27.416544
H    7.478025   30.088173   18.300398
H   70.643059   61.010582   63.052532
H   77.240921   83.097900   26.792234
H   79.669762   51.215973   18.320084
H   61.390747   20.045292   37.652443
H    9.461925   22.999416   81.322723
H   23.196577   54.118256   84.843254
H   96.773163   56.028187   72.387215
H   15.556210   64.461769   69.154694
