100
TIME:    1.506, STEP:  1506
H   15.477884   83.913498   97.767227
H   59.378120   86.398186   72.998283
H    5.641522   82.251991    5.656875
H   81.729385   70.602745   57.615559
H   81.681946   93.470070   24.870354
H    4.662972   99.576530   27.889673
H   74.039894   63.031361    8.224022
H    1.517668   18.890514   69.918877
H   16.607643   41.497696    5.289075
H   33.683907   38.007286   66.665428
H   60.170578   26.839466   94.684113
H   98.358704   99.178902   85.730629
H   47.465179   70.592247   75.444298
H   80.513481    0.434044   71.848106
H   98.818001   35.504543   78.381088
H   40.971771   80.010796    8.029954
H    2.987355   81.591171   10.473365
H   33.326904   21.464081   47.336227
H   68.717430   41.532669   42.703739
H   51.942490   73.831406   18.868082
H   74.908463    6.289690   16.369232
H    6.752933   46.087685   91.021645
H   65.636757   82.374016   89.261063
H   79.117790   54.743839   95.225067
H   75.720940   66.734138   47.673798
H   39.753574   82.734390   48.014839
H   32.214378   79.875320   29.851171
H    5.470469   26.734692   16.552343
H   43.917526   85.728271   85.983360
H   58.739880   53.566513    3.111679
H   75.343513   57.095367   90.240662
H   60.846928   10.904746   59.846107
H   76.438919   58.296013   33.469330
H   41.733757   35.706734    8.306232
H   43.337837   45.078163   16.433960
H    3.495224    2.787460   15.462350
H   24.244343   49.383644   27.132086
H    1.746780   31.390057   28.715771
H   83.016647   48.359337   97.783386
H   21.345407   71.197243   56.523945
H   32.322678    7.857753   77.825241
H   96.270477   79.448494   73.554550
H   24.212896   72.530975   10.253726
H   83.191322   38.010780   27.983046
H   26.021534   72.470169   84.982376
H   58.658031   91.641426   89.286415
H   51.982044    6.980002   40.491890
H   56.319843   10.889078   61.760677
H    9.053876    7.723126   84.399521
H   57.475430   53.671680   78.332726
H   43.429722   24.249166   69.295883
H   78.321953   23.993162   75.196457
H   40.119766   30.741028   15.403069
H   41.816326   82.634529   98.273026
H   20.866943   90.528885   13.185598
H   95.450577   10.949213   41.359009
H   91.726013   46.092110   99.220467
H   13.917278   34.664909   74.764236
H    9.052597    2.400125   95.866669
H   59.636951   43.544567   20.775352
H   54.700512    8.536857   96.976799
H   45.460266   13.927294   27.212669
H   76.384537    4.455029   30.240822
H   46.454041   49.986755   86.252480
H   92.097557   40.562450   35.811871
H    8.829332   67.405342   35.231823
H   66.739365    0.430330   39.772655
H   76.335991    3.666334   38.198109
H   31.961090   41.574768   65.780220
H   60.892586   23.890112   98.561920
H   74.209816   92.932137   44.085331
H   49.790028    1.543762   66.885094
H    8.797363   43.812634   23.132298
H   97.045036   54.077873   13.702538
H   34.782356   30.786558   15.562874
H   61.264736    4.092607   94.595299
H    3.689591   96.016830   17.681791
H    2.734950   52.247871   97.609726
H   33.739456   49.090672   34.481743
H   25.668564   26.933615   91.178017
H   40.353252   44.861919   69.998772
H   54.320507   54.062881   60.846756
H   13.087222   32.392517   73.338959
H   53.770237   41.031963   25.873512
H   78.999512   54.684074    1.762729
H   16.629147   64.375069   46.364540
H   67.737053   93.854446   95.354889
H   80.198792   84.720703   80.088600
H   86.935738   10.320832   15.878248
H   33.187553   47.315491   78.052589
H   85.654243   54.750195   65.265701
H   89.715706    8.771803   62.215401
H   81.912132   72.754868   35.423660
H   92.788033    4.582173   28.360893
H   30.555286   14.830833   50.692436
H   18.311050   36.260124   89.661926
H   43.062881   54.106670   50.577789
H   12.394664   29.060364   31.940796
H   36.969536   43.342068   18.900845
H   32.769089   40.020306   52.636665
