100
TIME:    7.193, STEP:  7193
H   30.888567   62.388252   92.560623
H    1.824161   94.641228   31.646511
H    3.411803   91.397606   38.906536
H   82.683929   36.299652   45.890423
H   30.743467   49.308010   70.673599
H   16.473087   93.415382   91.093002
H   75.984100   47.044147   52.955120
H   54.530678   10.888410   47.756973
H   76.810204   94.715668   47.313641
H   78.293221   19.665819   89.352791
H   31.179688   55.668491   46.883049
H   81.304565   84.238663   80.923698
H   85.075920   26.602245   10.286324
H   98.927345   82.905037    4.629673
H   67.972176   27.518608    4.992253
H   12.308266   82.602844   35.959473
H   45.688881   57.730656   28.195520
H   54.886639   44.827560   50.178864
H   57.295780   80.108917   42.316387
H   98.727615   53.059391    6.065466
H   37.433899   40.131744   62.009815
H   51.980255   53.632797    6.727859
H   89.705284   36.122017   26.550756
H   50.724991   22.877413   72.859711
H   72.321480   15.718712   89.661842
H   13.691692   14.051983   13.989169
H   41.818584   43.472931   42.689304
H   25.617577   92.184639    4.533697
H   67.575691    1.697539   17.155130
H   76.804932   12.813192   55.211296
H   99.144096   67.064957   40.291740
H   19.927517   53.774296   33.372002
H   77.022835   42.207863   45.799202
H   82.022881   14.527085   68.721695
H    1.941674   15.058968   62.681046
H   97.913216   48.815628   96.812050
H   69.700546   41.112915   75.245636
H   66.690544   27.316761   30.031433
H   41.454082   24.692739   47.256958
H   85.693077   38.798740    3.964348
H   43.660614    2.994165   11.808779
H   94.026985   69.810501   47.174870
H   73.190216    6.636583   21.032192
H   20.046818   33.376793   84.028801
H   32.716629   48.091900   71.634468
H   85.276299    0.112304   12.383600
H   97.929977   16.017807   94.509682
H   56.626644   69.455551   13.639656
H   75.287300   36.725513   57.544098
H   76.758057   40.215496   80.598000
H   43.007687   75.205688   29.250919
H   54.708553   96.281403    1.860978
H   58.078289   63.716187   85.110786
H   10.120773   89.842133   49.223099
H   68.077530   88.964973   61.530544
H    2.554632    4.967385   47.760101
H   52.255856   81.995323   40.101677
H   90.450363   97.596947   28.280928
H   57.572678   42.696476   59.278404
H   84.354927   80.666245   59.024559
H   13.440311   44.063347   53.572235
H   43.624306   60.990646   69.895065
H   62.394619   16.445457   40.224854
H   36.970013   80.946396   31.849651
H   17.824520   86.351471   65.421761
H   59.470062   84.688072   71.490143
H   10.460417   97.043945   14.340079
H   83.495949   28.913240   10.069594
H   15.399292   32.943222    9.099397
H   76.112755    9.928161   86.586731
H   93.621468    5.990045   75.865944
H   80.938652   12.766919   83.290733
H   37.994598   62.515835   77.321594
H   71.860237   94.174744   75.770111
H    8.965829   38.906490   46.679737
H   95.702385   68.577904   11.932220
H   20.060738    3.227382   18.310186
H   69.920547   80.388176   11.681205
H    6.444831   32.390614   97.931282
H   46.773209   17.182625    1.237900
H   51.629692    3.697243    9.898471
H   81.053291   91.118378   85.237755
H   72.849403   27.410437   14.967680
H   45.016102   27.679981    6.448375
H    2.090239   98.956810   50.471657
H   85.743759   73.266647   41.287048
H   47.558994   80.362770   66.533348
H   71.712242   29.482485   20.997673
H    4.957576   93.677956   69.361336
H   30.380636   13.335377   81.348648
H   18.389942   61.831383   85.364792
H   10.508059   36.461304   70.578896
H   46.538593   43.345661   75.250313
H   42.441986   49.563805   11.811805
H   32.230919    5.423764   81.374207
H   88.033875   11.688491   95.920921
H   91.656120   80.471329   23.513153
H   24.393167   42.368702   34.482620
H   66.055138   67.863319   42.548557
H   85.996132   94.050797    4.815212
