100
TIME:    1.334, STEP:  1334
H   27.109079   99.686813   97.924698
H   64.162605   77.073296   62.148556
H    2.685264   69.877419    7.676495
H   81.700516   77.688927   67.043694
H   83.222534   79.683510   29.534111
H    7.330296   99.762871   10.855837
H   83.055092   51.416584   94.773308
H   15.036530    4.010624   85.710564
H   20.835732   58.034744   16.116167
H   38.384407   35.537621   59.930138
H   76.169601   19.918629   11.252192
H    4.923550   90.557381   97.973976
H   58.405457   80.998436   92.540367
H   89.030022    0.964319   58.759144
H   96.726265   50.867123   86.648300
H   47.887360   95.054497   22.307114
H   16.815624   70.216537   94.813271
H   29.651276   29.828400   53.299118
H   66.037804   34.316574   33.642612
H   56.576065   77.484726    7.157522
H   85.115189   23.413300   21.037582
H   90.260368   45.860664    5.666858
H   67.933205   83.772881   94.182022
H   95.098442   52.680973    7.999259
H   81.872795   80.376350   46.404846
H   40.542240   87.860062   64.135910
H   47.046806   87.024490   26.437994
H   19.982735   18.706310   10.866996
H   40.177597   70.122925   94.114098
H   52.144482   57.823471   89.438103
H   68.577522   41.671112    3.851216
H   49.986698   15.656753   75.769020
H   64.324173   70.880547   17.974211
H   34.466484   51.469551   15.552181
H   47.613167   58.079994    5.960845
H   88.540619   89.276321   16.054228
H    7.747322   55.682472   13.579165
H    8.855597   34.538158   16.578716
H   90.748459   52.031029   14.268857
H   37.545639   87.298622   42.990650
H   44.076553    1.956046   73.772995
H   11.728874   71.729805   65.473679
H   22.731359   71.499542   97.829994
H   94.174904   35.127754   11.165832
H   40.940834   79.257156   70.264114
H   60.877056   88.360786   88.588295
H   50.165882   97.701492   39.022163
H   56.310658    9.118189   51.118282
H    4.026495   21.967667   91.259995
H   53.868038   51.053730   90.363487
H   43.442844   40.854759   67.482346
H   69.962883   39.953800   86.487106
H   36.551743   29.743713   25.392616
H   45.799023   85.440132   90.682938
H   34.560333   75.451065   11.726042
H   95.235367   11.129976   47.214294
H   80.821167   51.055061   82.861885
H   26.725498   50.908012   79.194412
H   95.487343   95.132721    9.071045
H   70.987457   30.323591   25.667442
H   43.850780   16.535362   10.387283
H   51.564880   15.528574   34.995659
H   64.718582   16.184578   42.040627
H   34.642426   49.051117   90.921486
H   85.271202   54.300457   19.793665
H   19.395393   75.956001   25.061842
H   80.539047   94.483246   31.468658
H   88.217155   93.829453   29.975515
H   23.388123   53.933594   76.566963
H   57.408546   15.239037   98.924103
H   79.671425    4.635099   46.148197
H   63.971577    7.252403   54.291672
H   20.012558   52.319988   27.542789
H    0.829811   64.962921   23.925011
H   26.489777   30.541822    2.523712
H   57.198055   93.069359    6.168935
H   88.073570   10.924479   14.638680
H   94.654068   63.495216   88.111618
H   25.494555   49.594578   32.563225
H   34.103745   36.301453    5.995927
H   36.987316   43.082500   59.718563
H   41.414471   52.939590   75.229080
H    2.204115   29.521868   56.956760
H   41.937626   26.313700   41.583839
H   87.374329   65.443085   18.435982
H   20.588223   58.056637   34.420387
H   56.249565    6.360268   87.153290
H   77.429932   98.491516   81.875893
H   83.366402   19.897215   17.285614
H   48.395035   54.392487   71.903358
H   78.615303   45.463360   61.633373
H   76.989449   95.836021   58.938698
H   70.876060   67.600327   22.116899
H   76.164375   94.149406   16.763832
H   33.529179   30.238029   46.739922
H    4.104523   43.052361   98.545898
H   56.715591   44.235882   60.469574
H   11.763141   27.595886   34.692612
H   45.163261   42.600643   33.308102
H   22.087326   44.438671   69.202583
