100
TIME:    5.975, STEP:  5975
H   13.257732   74.084251   93.675735
H   35.459389   28.640188   54.849331
H   82.467606    3.769856   53.207851
H   82.479492   86.479706   12.652291
H   41.653519   51.680023    3.699198
H   35.364948   94.734932   70.471306
H   39.820377   64.799644   57.705860
H   50.263077    5.516035   59.590122
H    6.751030   11.821572   23.981573
H   11.562338    2.175691   41.663151
H   44.475082    6.659719   64.206276
H   27.791687   23.186268   67.622047
H   62.789749    0.269715   31.315605
H   59.234459   86.659248   11.939594
H   53.176201   36.316086   63.561451
H   61.282150   89.133583   37.064178
H   43.633217   77.170006   17.316168
H   28.839476    4.095440   92.401405
H   38.329578   29.011827   78.147690
H   31.540161   78.926064   23.138361
H    9.711739   61.388103   95.072334
H   35.209412   52.015884   10.451797
H    5.967882   46.027931   61.398743
H   63.895351    8.306612   63.319080
H   15.884313   12.311859   80.666603
H   19.308901   50.024361   28.555698
H   46.848289   94.102798   18.519247
H   28.388931   35.332497   64.277359
H   41.091774   91.190979   74.730896
H   30.100506   42.958641   58.383835
H   51.210373   57.844585   36.655952
H   43.022312   87.429276   46.128365
H   91.227898   31.322386   36.072144
H   30.560318   26.149529   20.033777
H   32.249908    7.255091   88.564377
H   92.034439   53.416527    0.640919
H   52.878731   85.717407   79.272011
H   17.035587   49.609715   44.080151
H   92.864838   51.231133   65.290398
H    0.415612   52.824352    8.134577
H   26.902355   61.197273   83.114113
H   96.673416   65.034103   84.993553
H   62.707012   99.330246   33.054893
H   97.820648   12.933065   64.938805
H   38.368793   96.150162   67.407211
H    0.999031   76.880814    7.435290
H   88.414352   49.779129   82.819588
H   56.558514   56.910538   38.277042
H   39.684395   37.600090    6.127896
H   51.191578   21.674673   65.763474
H   43.091320   92.795486   16.413189
H   95.506950    9.303764   81.814461
H   32.811703   56.653809   55.851337
H   38.323822    9.713138   95.477440
H   65.056572   82.225616   51.169292
H    1.037615    6.248603   89.223694
H   75.040138   17.140938   24.259789
H   81.144928   12.622438   59.653305
H   61.511185   91.227058   52.780891
H   64.729004   87.046295   93.667381
H   36.608662    0.707689   48.537243
H   86.853493   72.327621   25.003876
H   79.703743   99.559364   23.746765
H   53.332970   74.311478   64.921768
H   69.482498   83.631119   51.994938
H   34.292137   45.238060   99.471962
H    8.182766   54.931873   55.535477
H   67.631615   59.254063   51.842152
H   54.696705   20.460930   85.491058
H   51.436333   48.668015   89.151489
H   32.300362   88.861755   90.473915
H   81.300735   53.226395   94.083176
H   17.410110   22.758690    8.547211
H   98.678688   71.260277   48.138969
H   50.248997   37.159214   54.343765
H   66.913902   90.514214   93.888092
H    9.445861    8.672373   96.718864
H   12.696696   60.031006   44.417328
H   48.034924   35.968266   84.345497
H    6.505705   83.532845    6.169612
H   27.793657   91.095779   37.100300
H   89.652618   83.219528   87.131981
H   95.806129    7.042019   98.971680
H   61.218941   23.452888   17.693569
H   61.396339   75.146080   68.543167
H   13.774487   28.525051   56.705368
H   66.211464   68.921608    8.454580
H   52.123436   26.947756   33.626320
H   79.681015   61.493690   79.323006
H   38.068378   63.450382   37.809105
H   68.544273   96.064926   59.642864
H   20.388391   44.856140   47.372635
H   68.462509    6.797857   81.060501
H   24.728439   75.669502   29.684008
H   53.287956   14.525043   53.384892
H   87.432068   59.785248   58.832428
H   88.335197   10.573617   93.561356
H   26.744196   82.101074   58.931458
H   24.077667   62.606174   44.568748
H   10.342175   25.307060   22.149609
