100
TIME:    4.911, STEP:  4911
H   85.211830   71.657631   94.649857
H   64.845375   70.984848   87.760071
H   64.170364   27.220604   65.699852
H   82.300903   30.317951   70.975594
H   51.183670   66.395813   32.546295
H   51.868183   95.887642   65.099876
H   95.585289   92.951324   74.499603
H   33.891380   13.466393   57.283031
H   32.906181   14.120872   90.956764
H   40.634865   86.898048   99.997284
H   43.445770   63.847294   66.696228
H   68.403542   69.853737   43.358330
H   30.685959   64.612419   37.040283
H   11.917689   89.938789   30.969416
H   40.236626   31.356749   14.704504
H    4.062643   82.194962   25.385376
H   29.193825    6.796087   20.456053
H    6.086429   55.864048   29.284918
H   21.758892   84.375748   22.093088
H   60.203674    1.525386   50.696327
H   72.851021   67.312592   23.951641
H   33.202698   50.603409    1.061282
H   20.175102   54.681374   91.840027
H   62.756275   95.578094   42.339630
H   53.938263   96.691956   72.808693
H   24.159212   81.475845   28.610209
H   38.597794   38.332584   97.407326
H   18.166180   85.668594   29.103533
H   17.956398   94.656609   25.026146
H   89.303314   69.292381   73.799110
H    9.333158   62.433453   20.836250
H   75.840797   16.827675   44.628166
H   16.281197    9.170481   40.218620
H   85.602585   23.658783   64.858498
H   58.697296   87.686050   23.774132
H   99.542877   70.079201    3.987255
H   50.827370   24.684769   95.433029
H   61.009396   69.081902   68.996086
H   37.778065   74.415215   68.399918
H    0.632518   52.432442   24.421232
H   99.620209   24.692083   58.046734
H   90.247765   32.265678   33.522015
H   53.542156   92.949753   56.199684
H   65.758331   95.073792   60.906906
H   30.663160   38.128143   76.357933
H   14.728895   56.586628    3.111588
H   80.101852   91.914207   72.607552
H   56.501690   45.951675   72.442787
H    8.585579   25.720844   48.573219
H   28.876087    5.479910   40.182022
H   43.169941   95.517761    5.196665
H   43.797356    8.034910   51.664856
H   10.740226   50.484375   17.645342
H   62.960968   27.076111   48.524803
H   49.774078   88.979500   42.118084
H   99.710983    7.367827   25.444778
H    7.588790   47.841988   23.064537
H   60.372208   13.104160   87.058578
H   77.596413   46.271194   34.462662
H   34.943317    5.263032   23.930061
H   69.490265   50.186863   31.495682
H   24.614435   82.231186   73.148270
H    7.467690   72.165207   96.708435
H   80.269630   68.515457   93.804459
H   27.247740   68.611633   52.909275
H   99.655663   98.132835   36.559975
H   93.549377   18.149155    4.164699
H   41.129494   98.401932    0.976798
H    1.664380   96.913200   52.224243
H   29.883505   95.150879   91.391968
H   66.086128   61.255630    3.235757
H   69.031830   88.538284   16.181801
H   86.784622   75.387337   35.830719
H   22.098728   38.601681   11.358822
H   98.951180   35.641209   73.685028
H   41.758163   22.321356   65.480179
H   12.841562    0.893060   77.902092
H   62.708035   29.601768   85.655907
H   97.014336   39.093571   72.477455
H   58.680481   41.490200   97.834290
H    6.972648   80.088211   73.507988
H    9.803006   76.300125   76.122581
H   28.506319   89.248596   97.642044
H   88.018753   32.404343   14.873511
H   13.203988   41.699417   71.686058
H   38.265514   89.443596   82.817871
H   95.149300   46.283218   57.718979
H   35.004974   12.108269   44.671082
H   57.600937   20.735582   88.025154
H   32.139965    7.222336   99.774979
H   25.001060   38.611607   37.173138
H   41.663166   64.833405   27.102797
H    0.258253   74.876305   98.779709
H   21.894310   11.120698   57.941013
H   71.682610    9.831528   28.934959
H   99.550018    1.802228   13.789598
H   72.790337   49.512814   54.752930
H   24.891996   58.051910   77.448265
H   74.764435   58.019688   33.689415
H   44.251461   52.607800   24.647993
