100
TIME:    1.557, STEP:  1557
H   12.029007   79.236526   97.720535
H   57.959465   89.163124   76.215355
H    6.518211   85.921196    5.058148
H   81.737946   68.501610   54.819881
H   81.225143   97.557945   23.487495
H    3.872083   99.521278   32.940411
H   71.366783   66.474998   12.212288
H   97.509163   23.302509   65.236458
H   15.353966   36.594269    2.078715
H   32.290154   38.739571   68.662285
H   55.426682   28.891575   89.771347
H   96.412430    1.735224   82.100334
H   44.221260   67.506691   70.375114
H   77.988228    0.276808   75.728981
H   99.438225   30.949314   75.929764
H   38.921219   75.550163    3.796604
H   98.887009   84.963882   15.116582
H   34.416771   18.983963   45.568161
H   69.511971   43.672325   45.390469
H   50.568581   72.748154   22.340403
H   71.882050    1.212370   14.985012
H   11.643228   46.154999   86.679298
H   64.955833   81.959236   87.801941
H   74.379341   55.355503   91.437576
H   73.896843   62.689194   48.050056
H   39.519726   81.214569   43.234756
H   27.816578   77.755508   30.863218
H    1.167373   29.115200   18.238115
H   45.026459   90.355438   83.572502
H   60.695492   52.304276    7.165940
H   77.349709   61.668839   86.204926
H   64.067108    9.495721   55.124779
H   80.031082   54.564552   38.063812
H   43.888588   31.032875    6.157766
H   42.070152   41.222969   19.539360
H    7.929590    6.793860   15.287061
H   29.135902   47.515968   31.150702
H   99.638893   30.456608   32.314548
H   80.724075   47.270638   92.895523
H   16.541784   66.422997   60.536724
H   28.837517    9.607722   79.026779
H   91.686890   81.737175   75.950623
H   24.652189   72.836807   13.937425
H   79.934563   38.865631   32.969509
H   21.597672   70.457748   89.346512
H   58.000065   92.614174   89.493416
H   52.520557    9.731242   40.927681
H   56.322567   11.414167   64.916267
H   10.544515    3.499409   82.365311
H   58.545063   54.447933   74.765465
H   43.425831   19.325312   69.833618
H   80.800514   19.260744   71.848648
H   41.177727   31.036743   12.441051
H   40.635410   81.802635    0.523536
H   16.806694   94.999634   13.618374
H   95.514389   10.895615   39.622849
H   94.959427   44.620537    4.071041
H   10.119717   29.848438   73.450638
H   13.074715    4.555071   91.951553
H   56.271633   47.464741   19.324791
H   57.917583    6.165200   93.000206
H   43.650177   13.452496   24.904922
H   79.843628    0.977115   26.742043
H   49.956322   50.264183   84.868065
H   94.121651   36.488972   40.561604
H    5.696368   64.869972   38.247341
H   62.647598    2.193475   42.234875
H   72.813087    6.583170   40.636204
H   34.503075   37.910233   62.581650
H   61.925644   26.455248   98.454529
H   72.590385   89.462151   43.473667
H   45.585033   99.851089   70.618889
H    5.471965   41.290104   21.824535
H   95.922874   50.850296   10.671455
H   37.241074   30.859125   19.429157
H   62.470554    7.361282   91.163445
H    8.320108   91.596664   18.583918
H    5.131022   48.912903    0.426069
H   36.184166   48.941257   35.050606
H   23.167435   24.156031   86.784309
H   41.351292   45.389538   73.046974
H   58.147297   54.395950   56.582230
H   16.313999   33.243866   78.196472
H   57.278744   45.396099   21.215218
H   76.516281   51.493851   96.818863
H   15.455235   66.248192   49.906120
H   71.143227   90.146332   97.786758
H   81.019791   80.637497   79.558647
H   87.994087    7.481284   15.461037
H   28.678429   45.217079   79.875908
H   87.741371   57.503849   66.342728
H   93.489189   12.607347   63.186981
H   85.184456   74.283249   39.369125
H   97.717140    7.675755   31.799557
H   29.673393   10.262421   51.864403
H   22.523438   34.246147   87.027725
H   39.014694   57.033474   47.644760
H   12.581918   29.494598   31.124660
H   34.540001   43.561909   14.628925
H   35.936356   38.710209   47.724678
