200
TIME:    0.012, STEP:    12
H    2.465179   63.231678   11.440918
H   25.932112   29.549309   80.641289
H   22.916538   59.158630   34.117973
H   10.157117   74.308846   50.461838
H   17.631023   77.950623   56.936592
H   97.035828   59.003273   72.298698
H    0.055969   55.465904   45.238247
H   97.779457   79.040802   33.165363
H   78.169106   90.924347   53.281475
H   18.887264   78.092613    5.065367
H    4.246544   89.723579   85.756653
H   29.834991   35.937195    1.878485
H    5.578197   79.441048   70.636284
H   15.180767   52.244991   31.279110
H   30.629873   70.189430   43.539581
H   35.946156   35.360546   59.241447
H   73.481644   97.040070   26.501804
H   41.976379   72.206436   47.579494
H   57.439457   37.955975   39.127464
H   89.330879   82.835777   46.309132
H   55.348839   65.376694   36.286182
H   95.104897   40.099464   79.360916
H    1.832889   64.199203   54.606941
H    3.817794   86.044563   92.314217
H   93.336479    3.533969   53.546001
H   18.849829   52.218464   14.486853
H   94.480904   54.221867   39.914688
H   89.277863   60.723640    0.131347
H    1.465745   63.459908   39.673431
H    3.352692   14.656519    6.512538
H   13.659164   41.923740   15.916058
H   36.072155   58.162582   87.989754
H   32.632301    4.079491   70.394211
H    3.972969   63.329170   34.305099
H   58.929905   99.222153   35.953373
H   40.508934   55.120453   76.862007
H   79.720459   79.350052   84.243263
H   44.192966   38.857533   25.418762
H   61.508575   54.564968   39.363594
H   92.269302   40.626080   72.602631
H   80.438614   15.879420   93.956535
H    1.990848   47.887909   46.591713
H   80.807083   93.019569   41.862125
H   37.789200   52.161156   10.593986
H   20.987082   69.338882   36.136070
H   44.268303   19.772293   40.208218
H   75.677582   37.382393   91.179680
H   95.666573   65.554085   55.844193
H   78.262833   37.404446   61.001949
H   70.275864   16.772589   15.358591
H   83.632004   73.381950   36.904575
H   29.853891   31.773663   58.638855
H   46.028496    0.947021    4.945305
H   25.799927   77.372238   78.326790
H   86.849655   81.455582   98.147102
H    8.228453   77.966911   71.182281
H    6.081166   15.882698   52.100330
H   64.917709   53.279133    9.418595
H   32.992100   70.073044    1.612049
H   48.376591   97.269447   71.209045
H   51.157936   19.824747   48.897926
H   85.840164   15.884813   47.318851
H   65.165970   20.483286   92.576996
H   18.601814   64.827049   98.577171
H   67.683243   72.680084    8.606134
H   47.683350    7.703346   28.765030
H   94.691750   27.971275   81.124550
H   98.618217   90.931557   82.757545
H    8.412697    2.772155   64.865639
H   46.549419   37.656094   50.994770
H   58.565186   72.648682   67.182648
H   38.547947   29.814852   46.360821
H   70.257462   21.721386    7.130026
H    0.437447   13.976197   53.935558
H   76.368790   97.180458   78.333267
H   47.550789   27.126148   64.367142
H   96.391266   21.462297   75.370613
H   34.999935    1.818155   55.763985
H    9.797146   19.535170   39.988232
H   71.711609   91.938522    5.074491
H   33.691250   33.955261    4.517932
H   16.611275   72.690254   94.905693
H   11.889251   11.165332   96.950706
H   32.109127   54.404091   86.420380
H   47.027344   96.912903   64.243546
H   18.243668   93.751678   32.529053
H   25.636515    2.309008    1.248631
H   77.227547   27.030069    2.842584
H   58.713608   71.483589   76.336586
H   24.586113   75.827583   57.373867
H   50.799973   32.924549   81.768616
H   85.643593   86.535034   93.392868
H   36.428684   19.433517    2.223298
H   70.252319    2.624963   62.844364
H   19.347580   60.010338   58.443840
H   78.714088   22.611687   39.781483
H   76.212761   22.165205   88.509735
H   13.162554   24.895779   46.434849
H   42.184227   72.061996   52.073250
H   63.240108   94.222244   27.194742
H   99.693787   74.122437   58.203117
H   82.093971   73.207138   67.122261
H   18.453169   45.502167   27.316509
H   10.920084   67.518524   81.108261
H   25.641008   30.469025   17.695482
H   78.396828   37.935932   54.565224
H   54.857738   27.265741   57.320328
H   66.094093   25.520332   27.557837
H   67.002281   42.967659   88.107628
H   97.042938   31.239328    4.421374
H   44.194771   98.048073    0.635436
H   76.838959   57.611031   87.914085
H   61.054016   77.628876   98.894691
H   63.996513   24.312744   80.833496
H   71.458839   72.474365   34.767124
H   23.343136   12.467432   68.648712
H   41.949116    5.232148   81.522141
H   41.927883   15.774083   38.536003
H   10.203536   49.153522   94.808151
H   64.765694   42.124325   40.837463
H   38.174934   20.244328   94.990990
H   28.126850   32.881184   41.481514
H   26.739492   31.438534   17.265532
H    7.436507   75.524055   27.849510
H   83.735985   14.592175    0.353936
H   39.369259   56.113705   29.933630
H    1.053785   48.125351   79.860123
H   80.415825   85.781761   33.076946
H   89.661903   60.736736   90.086159
H   56.694138   25.230011   62.617302
H   39.405251   93.326569   94.698196
H   90.451439   83.790024    3.950267
H   93.182259   71.501930   95.679138
H   12.100579    7.157142   46.900406
H   93.162766    5.492662   66.893906
H   68.430679    1.919467   87.040581
H   68.515244   85.983528   43.988411
H   89.273582   71.338966   86.800880
H   40.353699   41.145126   71.604012
H   43.324440   20.025171    1.792989
H   39.330029   69.774323    7.545110
H   67.734451   34.083260   40.931843
H   62.334892   52.564442    7.074406
H   68.160530   34.781052   74.346230
H   29.584866   77.328690   41.613041
H   37.586174   58.047066   40.765892
H   39.338799   97.776268   48.914417
H   48.878120   81.905724   70.133080
H   59.090061   74.310837    0.211073
H    2.155190   86.123032   98.516029
H   84.256721   57.437817   53.065434
H   24.190020   13.418425   55.297333
H   65.583923   40.363888   11.468857
H    3.882736   95.908737   81.586769
H    4.571435   47.857754   56.627983
H   56.733696   42.963566   47.046417
H   56.924664   54.046474   78.056076
H   42.804504   40.318069    4.382483
H   22.816999    2.593428   11.060052
H   66.235115   66.246674   69.491379
H   51.716339   93.672234   89.478050
H   54.309002   24.237858   37.519180
H   55.405087   44.510330   37.326855
H    2.905711   13.481627   80.953918
H   61.137260   14.351926    7.584284
H    7.985465   71.692970   63.548176
H   78.825890    1.254480   49.804661
H   23.433041   20.559044   38.584614
H   90.974907   28.911673   37.395309
H   16.068123   12.180299   92.970856
H   83.720703    2.922370   35.995209
H   54.039406   73.915009   56.757965
H   33.267654   87.251114   96.839310
H   74.028404   80.009796   68.962845
H   82.034912   96.751694    9.951240
H   93.867661   46.429283   23.068003
H   37.759983   45.798759   77.370277
H   99.709206    8.983421   61.964794
H   81.432381   26.679827   71.801498
H   97.146324   52.009361   83.168663
H   85.580444   77.018974   47.020432
H   14.628923   29.827724   61.292652
H   76.131302   90.402328    1.557465
H   46.516380   24.798075   68.802406
H   82.574509   98.223450   79.336166
H   94.487236   34.299881   82.813087
H   23.413374    8.430063   94.213638
H    1.374672   57.567417   17.548756
H   13.221092   60.156666   63.937637
H   45.467468   59.513577   62.822407
H   36.928379   38.567696   80.929634
H   49.522011   78.733093   27.528486
H   99.036201   12.099822   52.583359
H   39.087025   54.430878   28.718105
H   92.718887   64.439217   22.562096
H   74.771500    9.823978   32.690178
H    7.945743   79.342430   95.771194
H   35.535919    1.937290   53.396782
H   14.953742   10.973932   88.214027
H   10.385853   42.716999    0.916586
