100
TIME:    6.301, STEP:  6301
H   91.211746   44.188316   93.377274
H   26.456554   46.306644   75.404518
H   88.073715   27.222748   49.380077
H   82.534210   73.048920   94.783081
H   38.733566   77.810364   94.860062
H   30.308506   94.381752    2.755052
H   22.735245   86.811211   83.199486
H   24.640121   33.718403   29.656879
H   98.737267   80.477875    3.460692
H    2.656981    6.856880   54.427372
H   14.151352   19.776709   32.805580
H   15.348312   39.527058   44.416634
H   41.986954   80.556282   98.922539
H   43.092644   85.654427   36.749241
H   57.137947    7.196442   47.886875
H   48.174698   60.620522   10.002759
H   17.418312   98.733879   46.993233
H   35.811047   88.232529   81.099648
H   43.405918   42.688843   95.324173
H   22.757919   72.001747   45.333977
H   90.366455   28.932858   86.222939
H   66.463348   52.448654   82.689941
H    1.614923   43.376595   52.071808
H   33.603954   12.206514   39.106358
H    4.225022   86.458893   83.074196
H   17.822809   40.386528   97.899925
H   18.736252   80.552628   24.988409
H    0.882277   50.549080   75.051834
H   48.180244   20.768002   59.320312
H   42.600895   34.890221   84.300278
H   64.041740   87.078407   10.863869
H   63.606236   78.420700   15.948891
H   14.190716    7.471541   65.440796
H   44.334465   96.273758    6.300760
H   24.141800   82.595955    8.408061
H   20.372774   78.949944   99.615883
H   84.146706   73.778931    4.959533
H    3.561844   43.642963   67.084435
H   79.105743   44.127739   33.698204
H   69.708878   22.304531   33.783733
H    4.623370   72.383995   90.794533
H   69.199997   66.312515    1.637635
H   65.513702    1.285635   56.601051
H   77.002930   18.404867   96.814537
H   10.091049   83.286453   95.303452
H   96.791069   83.098770    8.759714
H   90.961227   67.507767   85.948463
H   56.575924   60.268234   58.448093
H   49.212791   10.601723   93.124069
H   58.031712   26.637339   42.966141
H   43.068935   61.322678   19.849232
H   11.350281   79.054047   60.414742
H   39.574352   58.544067   36.916416
H   30.775223    4.393676    9.862464
H   39.100334   10.794099   53.942501
H    1.443647    5.905683   78.125885
H   95.708626    7.733867   55.265007
H   56.870026   81.835655   51.256577
H   87.223434    5.001752   27.754860
H   43.217278   12.103292   84.395164
H   57.172688   85.545914   23.120724
H   75.283119   69.293259   10.252639
H    1.834811   77.314003    1.391968
H   75.718796   76.087326   56.070141
H   82.420822   57.594677   82.353493
H   14.266445   29.031578   18.748137
H   82.027237   66.201782   71.274368
H   45.112663   77.897987   67.426834
H   70.944405   97.036667   65.046417
H   58.039803   65.065849   88.465027
H   21.947498   66.681061   86.564064
H   54.420155   42.407150   17.951141
H   96.153717    6.634285    0.187861
H   91.500679   50.628223   28.768999
H   65.965813   37.624317   79.056412
H   74.619194   11.407341   71.951141
H   39.048428   80.433372    2.490692
H   28.012768   38.713364   62.422043
H   63.666866   35.010700   87.981758
H   90.518448   65.774361   78.084435
H   34.173279   94.468399   56.584888
H   14.119392   85.333771   59.861912
H   16.426735   12.493356   30.018791
H   83.648048   51.349510   87.918236
H   45.523140   54.755028   36.941025
H    6.270729   40.500473   79.343704
H   87.984261   45.218758   23.999472
H   57.366417    0.860941   30.246239
H   86.446152   43.342232   76.656746
H    9.245255   50.037006   49.461555
H   81.885521   13.668133   66.527390
H   44.509090   69.374786   53.583130
H   89.359818   16.579945    6.270579
H   56.233868   95.447578   51.665726
H   47.652000   85.324356   60.876286
H   14.358397   46.911591   41.994202
H   62.458549   29.281141   74.812973
H   26.114939   98.232941   52.387680
H    8.547997   64.011452   17.261971
H   30.590502   16.941422   90.744942
