100
TIME:    1.796, STEP:  1796
H   95.866608   57.318954   97.501724
H   51.311256    2.120569   91.291435
H   10.626471    3.115948    2.252353
H   81.778061   58.655113   41.718571
H   79.084442   16.714832   17.007839
H    0.165829   99.262352   56.610294
H   58.840603   82.612312   30.902397
H   78.724236   43.978329   43.291634
H    9.478889   13.615416   87.035271
H   25.759516   42.171257   78.020103
H   33.195480   38.508320   66.748779
H   87.291656   13.714674   65.087776
H   29.019184   53.046928   46.620865
H   66.154198   99.540077   93.915825
H    2.345395    9.601425   64.442184
H   29.311768   54.645599   83.957779
H   79.671753    0.769337   36.876205
H   39.524185    7.361124   37.282516
H   73.235405   53.699341   57.981220
H   44.130066   67.671738   38.612648
H   57.699448   77.420227    8.498177
H   34.560123   46.470451   66.329872
H   61.764839   80.015465   80.964096
H   52.173668   58.221928   73.688354
H   65.348625   43.734688   49.813309
H   38.423847   74.092270   20.833521
H    7.207314   67.821487   35.605946
H   81.000381   40.270916   26.138105
H   50.223221   12.039340   72.274559
H   69.860023   46.389084   26.165131
H   86.751289   83.101379   67.292358
H   79.157776    2.892818   32.999336
H   96.864944   37.077904   59.594818
H   53.986717    9.130033   96.089188
H   36.129433   23.156471   34.092117
H   28.710255   25.568773   14.465608
H   52.058296   38.763527   49.983036
H   89.759575   26.082211   49.179409
H   69.980453   42.168694   69.989655
H   94.030464   44.047939   79.340225
H   12.505096   17.808577   84.657516
H   70.206940   92.462563   87.179276
H   26.710836   74.270020   31.200649
H   64.672493   42.871696   56.336704
H    0.866255   61.027569    9.798491
H   54.916653   97.172737   90.463478
H   55.044178   22.624460   42.969917
H   56.335331   13.874880   79.704247
H   17.530058   83.704613   72.832443
H   63.557659   58.085667   58.048954
H   43.407597   96.250938   72.353592
H   92.415733   97.083374   56.158985
H   46.135620   32.422546   98.560295
H   35.101315   77.904152   11.069345
H   97.779816   15.951563   15.646479
H   95.813431   10.644438   31.486725
H   10.111176   37.724342   26.802099
H   92.323334    7.277337   67.294754
H   31.923462   14.653657   73.604248
H   40.500828   65.835571   12.527295
H   72.993668   95.050362   74.364799
H   35.167603   11.227461   14.090268
H   96.053879   84.679298   10.345645
H   66.368713   51.564285   78.380318
H    3.607496   17.400230   62.820156
H   91.014259   52.988533   52.378887
H   43.472458   10.456031   53.773510
H   56.303795   20.252453   52.061787
H   46.415512   20.737213   47.591270
H   66.767883   38.476669   97.951263
H   65.001289   73.200844   40.607243
H   25.878992   91.919189   88.116478
H   89.888702   29.468838   15.696003
H   90.664116   35.724983   96.466942
H   48.763298   31.199194   37.547344
H   68.120018   22.678976   75.080833
H   30.019781   70.882553   22.811529
H   16.359676   33.284325   13.625489
H   47.640747   48.241062   37.716454
H   11.446280   11.139509   66.194191
H   46.028378   47.862103   87.331688
H   76.079453   55.956802   36.597488
H   31.435665   37.233521    0.960098
H   73.719490   65.847633   99.385162
H   64.879181   36.543587   73.650421
H    9.953960   75.026161   66.502937
H   87.105492   72.769089    9.183411
H   84.867218   61.502472   77.073128
H   92.953804   94.174217   13.505869
H    7.547482   35.383347   88.420479
H   97.522224   70.409134   71.389969
H   11.172974   30.581762   67.741570
H    0.519434   81.445663   57.858658
H   20.817677   22.172903   47.913177
H   25.540600   88.854614   57.356560
H   42.263840   24.808794   74.683136
H   20.044353   70.749275   33.899780
H   13.459441   31.529541   27.300026
H   23.155243   44.592144   94.608963
H   50.779037   32.570736   24.705467
