100
TIME:    2.741, STEP:  2741
H   31.959141   70.657677   96.636551
H   25.024406   53.358459   50.901417
H   26.870100   71.102631   91.162651
H   81.936676   19.721174   89.919495
H   70.620163   92.460754   91.385559
H   85.515511   98.238564   50.196712
H    9.315231   46.423744    4.802672
H    4.449104   25.733461   56.525280
H   86.248924   22.757538   27.550453
H   99.937691   55.740059   15.023448
H   45.293884   76.532684   75.721939
H   51.225792   61.082825   97.822182
H   68.906166   95.872910   52.695351
H   19.362740   96.627327   65.832542
H   13.841007   25.189928   19.014475
H   91.314194   71.991180    5.514206
H    3.692174   63.265053   22.912394
H   59.718773   61.405815    4.518261
H   87.957771   93.340576    7.770056
H   18.672340   47.605610    2.952671
H    1.621880   83.342194   82.847000
H   25.162689   47.722702   85.856827
H   49.147728   72.329842   53.927429
H   64.372910   69.555695    3.502426
H   31.549236   68.786041   56.785164
H   34.090771   45.935505   32.257889
H   25.718960   28.536425   54.358578
H    1.264858   84.380333   57.376545
H   70.771088   97.777260   27.603132
H    6.096019   23.000565    1.290682
H   23.930109   67.845444   92.519753
H   38.825508   76.779701   45.515953
H   63.431179   67.937706   44.727882
H   93.914467   22.526352   56.276794
H   12.637263   51.721588   91.636818
H   10.873490   99.804070   11.217603
H   42.696465    4.153692   24.445250
H   50.699455    8.785954   15.866859
H   29.374138   21.694738   78.689117
H    5.022234   55.580666   53.691113
H   47.923100   50.232525    6.922768
H   85.275688   34.875893   31.575048
H   34.850674   79.936905   99.459404
H    4.328251   58.711578   48.734062
H   18.894514   23.745808   90.665382
H   42.724918   15.197163   94.299080
H   63.147900   73.902435   51.770660
H   56.385799   23.604475   38.175453
H   45.150719    5.440633   35.134201
H   83.370293   72.464928   91.955963
H   43.335499    5.017344   82.317505
H   38.339512    9.394497   94.119621
H   65.738365   37.901978   43.676796
H   13.219639   62.488937   52.768890
H   22.549019   98.795395   23.663832
H   96.995834    9.651291   99.316696
H   70.018120   10.456595   16.679497
H   21.955902   18.033920   42.954544
H    6.454444   54.582912    1.054747
H   78.140564   38.470684   85.650032
H   32.605568   51.101673    0.686698
H    1.630981    2.429729   71.334335
H   60.154194   20.237646   45.515060
H   31.258539   56.704857   52.724758
H   41.117344   41.925045   50.825653
H   32.961128    6.009659    8.254396
H   67.652931   43.125607   99.396988
H   91.026024   74.297729   97.238251
H   93.512474   52.835548   88.321571
H   85.917053   86.007393   95.961365
H   34.994194    8.901759   29.269382
H   47.958763   60.556656   57.305885
H   28.273722   82.725182   91.466545
H   69.871117   75.924347   40.302773
H   94.326683   32.545277    9.184067
H   90.455910   83.245476   11.495512
H   15.819639   88.975235   39.525776
H   60.757488   71.494423   65.816742
H   92.954330   45.467548   48.262138
H   65.101540   59.674702   84.781662
H   64.521255   57.638561   43.811527
H   46.984779   62.128372   57.576881
H   91.223068   53.008514   90.966675
H   38.726803   46.712494   13.069702
H   18.865349   77.433823   82.043282
H   88.206299    9.735085   32.126690
H   50.219917    4.059906   54.244797
H    0.079834   85.843430   67.238991
H   12.565943   41.557259    5.774925
H   23.997002   96.501663   22.202438
H   36.195648   21.438320   91.346634
H   81.097321    1.645935   85.751595
H   61.151814    9.763859   30.966938
H   12.155323   79.495277   11.630609
H    9.199638    4.206767   79.072411
H   20.316986   87.492622   25.872940
H   45.034409   24.980724   79.552040
H   16.928663   39.575653   12.177973
H   78.138603   48.665668   15.450027
H    9.466660    8.298363   33.688507
