100
TIME:    5.532, STEP:  5532
H   43.215492   14.709319   94.081314
H   47.694344    4.633654   26.915413
H   74.849487   71.898315   58.409397
H   82.405136    4.731171   36.935081
H   45.621429   16.171618   15.710234
H   42.236126   95.214867   26.598547
H   63.036373   34.884930   23.062685
H   85.082001   67.189255    0.263285
H   17.640816   54.414169   51.867996
H   23.665037   95.814690   24.316526
H   85.681870   88.834732    6.879616
H   44.700935    0.981405   99.155785
H   91.058578   27.059875   75.334404
H   81.169502   88.024696   78.228081
H   47.788765   75.887039   84.854401
H   79.093811   27.880203   73.836639
H   79.256538   47.868809   76.988129
H   19.365835   25.650253    7.758478
H   31.431221   10.426188   54.807972
H   43.474312   88.335487   92.976936
H   35.999992    5.488611    7.096725
H   92.738571   51.427795   48.177368
H   11.883269   49.630821   74.073074
H    5.055058    3.007052   96.218338
H   31.727234   47.445107   77.394936
H   21.328344   63.121170   70.212646
H   85.048553   12.517647    9.728933
H   65.766701   14.654747   49.632652
H   31.459282   50.998142   95.672272
H   13.115068   53.922783   23.166515
H   33.773872   18.120949   71.704704
H   15.050936   99.670990   87.139122
H   60.024952   63.734840   96.163200
H   11.841363   66.747948   38.696068
H   43.261368   40.743393   61.586945
H   53.524754   18.718628    2.034128
H   10.390134    1.940727   44.365215
H   35.344440   57.717907   12.820093
H   11.563720   60.883904    8.220633
H   42.140774   94.295677   73.281456
H   57.178513   45.998215   72.677223
H   34.435844   60.138474   62.692982
H   58.891193   96.673706    1.056793
H   26.107021    5.497315   21.625906
H   76.795113   13.628585   29.499014
H    6.715670   68.431259    5.635535
H   84.953415   25.687317   78.567772
H   56.534855   52.347778   10.866691
H   26.736298   74.289001   23.799767
H   41.900448   14.931929   96.749680
H   43.122562   35.564957   11.743196
H   73.977486   50.411602   10.895622
H   23.621967   54.085144   81.579613
H   48.581581   16.941841   75.928551
H    0.328408   43.403187   47.400791
H    0.485810    6.714596    4.304474
H   46.955872   29.923424   82.126625
H   14.131619   54.458656   71.063583
H   26.573965   72.509605   86.788658
H   93.964462   52.996876    6.267342
H    8.663105   21.308765   83.077507
H    2.576181   76.451004   45.049599
H   49.628475   29.789717   54.124603
H   22.911697   71.898285   76.947174
H   51.898338   19.012100   10.739963
H   61.506462   67.260979   73.278343
H   43.726105   39.617901   34.147964
H   98.232521   33.918919   30.664190
H   32.616329   52.292091   13.274428
H   42.462906   26.385277   90.084320
H   46.367180   19.003448   95.786995
H   17.828720   67.928619   61.650162
H   46.294922   44.670074   19.906792
H    8.430019   99.299278   74.461021
H   28.891657   36.527187   20.761292
H   56.440773   62.123489   23.696409
H   69.225517   47.069500   88.884438
H   91.883743   88.996544   19.950800
H   26.792744   37.269497   79.404198
H   28.228619    7.664508   44.334442
H   19.124414   86.512741   10.623969
H   56.402702   80.346680   24.189173
H   67.787407   99.633972   56.784168
H   30.743017   85.544113   58.153416
H   82.966362    2.854145   11.486975
H   23.971409   12.252898   25.942230
H   36.624504    1.131326   87.330566
H   44.998772   62.398464   38.219498
H   70.487900   86.159630   82.946175
H   77.235992   81.674484   21.973570
H   50.414909   72.142548   50.287518
H   87.610878   11.538783   38.933220
H   40.065247   93.506721   46.802631
H   81.914070   48.793163   99.813484
H   60.946632   54.207531   43.204868
H   50.842117   77.279205   81.713821
H   23.498114   85.150948   19.038986
H   27.170904   63.339355   67.508247
H   45.181274   60.696575   81.674202
H   82.824646   36.674397   64.826553
