100
TIME:    0.007, STEP:     7
H   16.849161   21.379272   99.139603
H    1.075509    5.124243   78.442078
H   79.884705   74.407448   23.257675
H   81.477783   32.362602   39.779755
H   95.108353   73.318604   65.515541
H   27.907787    1.206033   79.439018
H   52.602619   61.811649   90.999893
H   19.336111   89.207764    7.550732
H   53.455925   85.620300   99.645714
H   74.649315   16.487988    7.962588
H   99.603912   66.524170   39.075226
H   55.574955   24.041344   92.431190
H   42.816833   61.283875   24.433407
H   54.735508    5.055684   57.773811
H   80.588280   69.395828   50.436878
H    1.239686   11.126835   32.459522
H   23.502981   82.460030   73.992012
H    1.294448   94.360092   99.303513
H   45.373299   78.647629   63.729637
H   92.459908    5.385717   16.665567
H   63.861160   55.521255   57.050926
H   63.019016   44.109177   18.659433
H   85.650566   94.565285   32.151001
H   18.391193   36.765720    6.554398
H   29.332144   85.617302   36.609879
H   46.620457   27.407299   88.513634
H   61.476131   42.186565    0.105312
H   31.949677   56.765911   67.007858
H   11.323197   49.726894   56.841248
H    1.262544   90.666397   83.945335
H   16.377108   22.669916    8.858084
H   66.199341   52.316528   98.616081
H   70.851868   67.970116   98.427567
H   78.397911   73.081207   71.456581
H   80.597832   58.391037   25.155029
H   73.163780   85.035942   20.620245
H   80.472313    4.276756    9.015364
H   63.698753   58.826130   22.935701
H   50.406673   80.358559   41.456108
H   62.533161   11.527580   38.584747
H   34.763088   56.419308   42.502483
H   30.992050   12.170574    3.129342
H   11.302171   63.541912    1.979264
H   78.912720   12.889222   81.415665
H   56.047485   31.615761   56.706078
H   77.862038   63.335476   83.345741
H   36.153980   26.117992   27.683050
H   56.239788   95.453735   69.011063
H   65.231499   31.869312   44.195457
H   26.036596   30.855938   83.175308
H   43.536892   68.969185   53.503193
H    5.473767   63.090332   73.603134
H    9.024668   22.049316    2.462890
H   76.521866    7.088122   32.124531
H   40.202621   59.119251    0.465591
H   93.574997   12.525150   92.388504
H   96.696236   89.344810   56.653221
H   25.539022   76.225380   13.374733
H   90.829460   39.064865   10.945678
H   58.562614   28.325743   63.397995
H   60.142380   78.244736   13.850537
H   98.662689   27.880203   95.037094
H   74.708549    6.675973   33.077850
H   43.520134   41.832558   26.950987
H   32.599045   60.286098   96.212852
H    0.915483   41.925190   46.599758
H   87.006706   48.603741   67.400314
H   79.882164   17.937462   66.537239
H   57.252686   49.283348   59.794758
H   30.528389   48.496330    1.716141
H   21.810770   94.927895   62.063450
H   73.389183   51.293205   57.135006
H    6.535020   17.960766   61.570248
H   30.036980   48.937428    2.792506
H   62.507603   28.653658    1.928256
H   25.823141    8.020792   95.459091
H   67.591400   25.937473   91.155334
H   32.309204   50.262180   14.826567
H   61.890053   53.478886   17.766506
H   99.182144    8.572555   20.317987
H   11.019213   29.353102   80.407089
H   41.849628   44.273270   86.195129
H   18.238800    7.374181   30.566469
H   50.651993   12.760593   62.790840
H   51.990623   48.448349   47.073647
H   51.139408    9.304481   42.271580
H   67.622231    2.843974   23.876995
H   56.067856    4.733664   95.665062
H   55.828560   93.782845   28.143826
H   65.715706    8.999138   24.462133
H   24.309053   73.808517   33.609570
H   78.804558   96.033211   33.658554
H   85.733360   27.841124   19.456129
H   47.904861   13.656786   27.291035
H   56.470631   49.103199   16.248428
H   94.499725   95.455254   67.087334
H   62.046684   68.082100   36.786278
H    6.891154   16.297272   55.923073
H    8.378469   36.880466   44.465130
H   39.676250   78.522560   97.011581
