100
TIME:    4.025, STEP:  4025
H   45.127594   52.908295   95.461014
H   89.315285   22.972086   31.894499
H   48.940811   63.478584   76.096184
H   82.152191   66.820183   19.538683
H   59.119492   95.379005   56.570068
H   65.609749   96.847511   77.355705
H   42.019810   33.124989    5.213216
H    3.529236   36.815388   38.632023
H   54.685753   99.305939   46.728031
H   64.847908   74.176399   65.306793
H   25.859329   28.196934   52.040615
H    2.215713   25.442881    6.425521
H   87.223618   18.190495   25.077957
H   55.786385   92.669685   63.545612
H   29.460957   10.498314   57.295696
H   39.688522   59.687859   98.930603
H    0.440477   48.192410   39.799980
H   87.149498   98.964729   60.003208
H    7.959083   47.208176   75.414078
H   84.077660   20.340849   90.373375
H   25.427505   55.516621   47.996826
H   48.261017   49.427231   76.512360
H   32.004478   61.887154   17.189919
H   45.075401   84.955231    8.140938
H   85.627472   66.957855   66.265358
H   28.200129    7.678976   11.907583
H   14.998217   75.163834   79.832253
H   92.924316   44.313095   99.814964
H   98.690094   14.271638   66.908333
H   55.329346   91.220665    3.364946
H   74.465599   82.984886   90.933754
H   19.897993   41.304344   26.649620
H   53.873760   73.994270   60.400742
H   48.167679    4.855554    2.185085
H   80.720215   54.661003   69.821625
H   22.521711    0.669925    6.793387
H   65.847977   57.131821   25.619436
H   97.632591   85.291527    6.475368
H   75.177155   93.720757   54.259712
H   84.083199   35.376114   54.713696
H   60.171417   94.292511   37.172955
H   69.877060   92.501755   91.899658
H   45.910519   87.636673   92.203941
H   22.335310   80.226318   74.277344
H    7.517099   73.084015    0.540367
H   26.159641   39.687519   99.510628
H   73.179977   43.731468   64.103920
H   56.454372   36.826157   17.622078
H   82.684616   99.100006   83.915588
H   10.293826   91.998436    2.151609
H   43.237537   81.055534   95.855774
H    0.740880   90.249313    9.827312
H   92.364281   45.347046   69.104897
H   83.482903   41.534988    9.428977
H   20.317429   11.329294   34.581081
H   98.602402    8.300085   55.606308
H   51.418354   73.406960   38.798515
H   26.345940   96.775734    9.879944
H    7.720663    8.834522    2.481262
H   93.410873   37.163242   49.130013
H   13.600492   91.391380    0.576008
H   56.059502   90.477951   13.234767
H   47.318066   32.624809   57.464134
H   19.428587   63.689507   17.860287
H   92.081276   39.373905   70.399757
H   54.082985   42.178078   84.173218
H   64.635239   87.517120   61.389385
H    2.331371   47.731644   58.620876
H   57.509186   60.575500    7.790689
H   11.933271   50.589272   93.257629
H   94.219765   21.538895   13.864948
H   42.087341   17.943436   51.314068
H   44.554321   19.213902   58.549881
H   41.605572   94.669228   64.002190
H   56.231464   34.377155    6.519942
H   20.810030   65.538902   25.098442
H   32.398544   77.686813   62.233234
H   21.082150   87.535789   36.725838
H   54.524727   41.696033   62.593895
H    2.131510   89.743690   74.163902
H   89.638565   70.922134   20.553675
H   43.325798   70.513870   50.209717
H   72.459938   74.442474   13.261333
H   27.064112   56.587105   95.795883
H   56.345398   97.117699   57.573792
H   58.659359   56.901199   21.291595
H   35.975380   10.702644   15.471184
H   20.744795   83.043114   53.884476
H   39.214706   70.066689   95.271492
H   10.474126   43.677094   68.099289
H   88.742157   90.770149   18.462442
H   76.105667   98.202690   10.221018
H   43.463737   48.287865   30.263956
H   36.259480   57.379906   98.204140
H   86.999962   89.194359    8.577676
H   26.370117   36.787788   59.552467
H   43.116516   98.667305    5.707314
H   21.640608   50.508148   91.629997
H   16.971489   54.200489    7.900261
H   89.219505   75.343849    9.998670
