100
TIME:    3.441, STEP:  3441
H   84.621735    6.464133   95.995682
H    5.552033   91.310089   95.057297
H   38.902420   21.463150   82.948845
H   82.054169   90.880241   51.551060
H   64.350327   48.568829   72.405151
H   74.663460   97.480202   19.519510
H   72.626350   93.689827   59.543617
H   49.430481   86.292221   92.252419
H   69.041588   55.455292   83.488548
H   80.807747   65.791023   42.436623
H   80.181595    4.698734    8.295298
H   24.506889   96.170410   47.994606
H   24.380737   53.522141   83.121391
H   84.703011   94.469734   19.101337
H   22.356556   62.663284   85.366829
H   63.169357   10.766701   47.408546
H   47.402443    9.566918   86.636154
H   74.673912   27.364983   80.250183
H   98.863228   22.707018   44.646740
H   99.814720   32.742786   50.611900
H   60.082901   13.654495   63.845276
H   92.272369   48.651962   26.245316
H   39.801720   66.636787   33.900269
H   99.335289   77.951080   51.515675
H    6.514779   13.270294   61.952370
H   30.880152   25.079668   66.645164
H   65.358612   99.437759   68.247780
H   42.200146   17.053940   80.513451
H   85.991730   61.286362   94.515022
H   32.935669    5.674939   56.938080
H   51.481358   30.616941   37.137978
H   83.024117   57.437950   80.713463
H   12.736471   16.722378    7.789410
H   23.491985   58.375618   26.786606
H   95.236450   98.806755   34.261017
H   71.738136   54.794483    8.809197
H    9.836026   78.518539   79.602715
H   21.769554   95.975975   65.261986
H   99.825348    6.444723   10.853952
H   39.089725   90.048248    8.764566
H    0.084372   74.251373   23.414167
H   22.363701   66.294113   64.462280
H   40.880184   84.134598   50.020115
H   59.627823   70.441895   17.177027
H   58.173512   96.128204   50.566708
H   33.694004   28.548603   97.140266
H   68.617477   11.970788   58.494446
H   56.423183   30.811583   81.487526
H   65.610886   47.465324    7.210279
H   98.046196   83.114037   42.995853
H   43.282093   37.437515   89.698181
H   72.358978   44.440331   48.167461
H   80.254051   41.960815    3.020885
H   97.010002   51.065445   83.658783
H   66.815720   60.145050   29.614195
H   97.871689    8.914953   75.487045
H   14.397002   90.257912   83.255119
H   69.832268   51.927780   24.923710
H   61.659981   84.159027   47.316158
H   31.948288   92.274185   65.740364
H   76.761452   18.550335   46.107815
H   76.786797   95.913742   39.660614
H    7.669347   72.475395   97.510765
H   79.327324   60.512688   33.717648
H   68.903419   86.017128   16.014456
H   89.959206   71.210548   49.642578
H   11.490456   67.324493   33.194561
H   42.672447   14.331542   30.702299
H   28.400970    2.538012   44.419651
H    0.101602   21.214540   94.487366
H   12.764599   61.274223   20.871326
H   90.241074   37.325150    8.555217
H   82.631592   48.099339   73.522209
H   54.464336   31.625725   98.702141
H   28.076429   33.543964   62.249180
H    7.002915   28.108103   64.392517
H   79.375862   28.303310   51.905231
H   93.644760   25.721586    4.472332
H   26.521490   43.411427   56.075401
H   30.772316   21.549061   24.475876
H   78.214493   64.880386   85.649597
H   99.505737   66.699905   99.042725
H   35.510944   64.693695   57.638126
H   86.885315    6.612548   49.134087
H   84.780823   33.648075   14.185957
H   72.099121   35.447647   80.736618
H   96.971321   53.164192   87.623398
H   11.345778   29.799423   59.957413
H   27.094666    2.583302    0.047879
H   62.108875   67.705276   47.224083
H   64.842499   59.234325    6.129434
H   32.892380   54.287643   99.092354
H    6.029317   30.764120   85.102257
H   79.813759   21.954330   58.826431
H   97.096275   41.506168   95.158226
H   78.134064   59.849800   89.716652
H   89.472229   65.152534   39.294777
H   19.497480   45.535736    0.977434
H   44.792046   51.683094   56.817924
H   52.943645   90.332375   66.258179
