100
TIME:    9.556, STEP:  9556
H   71.088776   45.690742   90.397232
H   36.562088   22.689274   80.641838
H   44.029728   61.400749   11.167030
H   83.080551   38.944084   16.365255
H    9.569277   38.712524    6.604078
H   79.833496   90.855370   25.108223
H   52.139111    6.604068   37.744823
H   68.803543   15.317875   30.793510
H   18.723152   67.521500   98.570702
H   13.749502   53.595005   81.876778
H   11.379181   50.747406   19.264963
H   91.114418    2.683606   12.722691
H   34.395340   83.576469   75.458176
H   81.925797   75.621620   84.455879
H   96.673164   16.443794   91.352806
H   17.296913   75.926193   39.809631
H   55.670357   14.026615   43.308731
H    5.416426   29.843803   68.266678
H   94.106201   79.239746   66.807251
H   35.060001    2.881514   66.949516
H   97.209641    4.887438   97.877106
H   78.523376   56.769714    5.496595
H   58.155830   16.910975   58.942307
H   31.167351   51.145721   97.362137
H   87.807602   28.321869    7.109718
H    2.547773   44.392624   91.619667
H   38.054337   45.245899   89.570969
H   26.234419    2.481481   82.643333
H   18.957363   16.087221    5.455362
H   67.412529   54.328537   43.062843
H   92.143898   78.960403   53.338791
H   69.129013   88.489960   14.617256
H   43.469620   69.320007   58.676903
H   81.865555   97.972404   69.172401
H   43.133400   36.146675    6.446837
H    3.324517   33.900204   89.384407
H   96.344025   54.573982   61.440754
H   69.023003   84.075172   96.782356
H   41.710804   73.208336   18.264992
H   63.124081   17.581795   89.880875
H   82.166824   84.071838   67.479698
H   94.886116   79.077026   67.810173
H   93.526093   20.812832   91.712883
H   69.167885   73.046425   15.068858
H   27.744028   54.874691   73.846756
H   54.777939   45.176891   21.983648
H   16.402279   44.528393   17.199209
H   56.770870   93.793701   59.848301
H   44.360260   41.021992   63.283554
H   26.363691   76.187981   15.377047
H   44.491016   47.197784   51.636673
H   69.550613   77.013687   46.744270
H    7.083158   77.417664   47.875565
H   55.393158   51.291771   53.495796
H   79.931740   96.046600   81.616241
H    5.497746    2.481739   67.317993
H    2.061829   13.812302   64.842567
H   14.496648   74.440712   67.414452
H   43.941082   42.545792   77.871696
H   28.421543   62.295300   91.815224
H   62.504154   34.173229   69.340538
H   59.756798   38.996170   62.978577
H   22.817108   55.198875   78.186859
H   99.232788   93.818573   67.697006
H   11.616187   97.620461   85.477058
H   14.309525   67.216545   11.209998
H   20.872837   78.736755   28.426426
H   20.267654   64.055305   23.034668
H   33.171883   63.153122   60.898548
H   24.102371   28.617609   81.575500
H   18.578552   45.207737   47.525520
H   86.353706   34.304100   56.495747
H   83.923065   45.630756   16.732449
H   19.845989   44.620541   35.367958
H   22.792639   42.385944   25.843817
H   51.569527   20.022331   52.930962
H   34.671822   98.703415   60.222946
H   80.930290   25.885185   42.192734
H   19.759039   25.449734   24.302515
H   30.889637   88.458260   97.663399
H   97.890205   28.143564   51.132530
H   58.369461    6.449028   87.548775
H   22.311201   66.928383   40.008488
H    7.587090   29.887188   90.624718
H   87.033890   51.134003   21.406912
H   31.359707   60.063843    5.380801
H    5.378520    8.552928   79.210091
H    9.715044   40.396400   96.499786
H   53.999271   62.109398   50.035042
H   21.459841   16.115646   65.818176
H   15.094187   89.426590   35.267357
H   85.346130   14.182146   15.607545
H   98.011658   14.241598   57.984734
H   69.168434   92.798813   73.672279
H   91.372238   93.760841   35.671333
H   83.207993   18.376257   73.869019
H    4.092326   16.077763   87.613510
H   19.832018   59.289852   87.039268
H   53.487175   78.067314   44.622890
H   32.771294   33.412830   77.180542
