100
TIME:    0.135, STEP:   135
H    8.193179    9.641124   99.022415
H   97.514915   12.064236   86.516296
H   82.083923   83.616432   21.754745
H   81.499268   27.088709   32.763153
H   93.961868   83.578369   62.044838
H   25.922924    1.066720   92.114799
H   45.894611   70.454475    1.009670
H    9.275564    0.281964   95.798302
H   50.309441   73.313660   91.589073
H   71.151268   18.325390   12.975283
H   87.697662   71.674561   26.745914
H   50.689213   30.457359   83.319862
H   34.675232   53.539734   11.711322
H   48.397617    4.661031   67.514671
H   82.144920   57.962753   44.283558
H   96.095154   99.929008   21.833546
H   13.212387   90.924873   85.646309
H    4.029617   88.135483   94.866013
H   47.366463   84.016769   70.473740
H   88.995064    2.701635   25.397989
H   56.265457   42.778091   53.577293
H   75.292458   44.278122    7.760201
H   83.941582   93.524269   28.488422
H    6.498600   38.300877   97.047974
H   24.754507   75.466911   37.555191
H   46.036472   23.590405   76.517540
H   50.438046   36.865276    2.645229
H   21.149872   62.740520   71.238327
H   14.106645   61.340176   50.790466
H    6.170503   87.498428   94.121117
H   21.412264   34.148430   98.729271
H   74.281372   48.780396   86.766472
H   79.867493   58.604881    9.958821
H   83.806114   61.350739   66.064003
H   77.416191   48.715256   32.948975
H   84.292686   95.090630   20.179815
H   92.747704   99.590874   19.102448
H   58.408714   56.483356   31.967928
H   44.651791   77.626137   29.187553
H   50.477497   99.544456   48.656036
H   26.016018   60.810909   45.519085
H   19.488144   17.915529    9.142770
H   12.404466   64.309494   11.224705
H   70.738892   15.034242   93.931290
H   44.944946   26.565468   67.659851
H   76.227272   65.741997   83.847694
H   37.505543   33.023266   28.776800
H   56.246624   96.772095   76.930984
H   68.973686   21.268726   39.089012
H   28.721167   32.804180   74.222183
H   43.531033   56.611176   54.845966
H   11.693982   51.212402   65.200790
H   11.679697   22.791504   95.029121
H   73.558975    4.999562   37.772968
H   30.012192   70.340378    1.551712
H   93.735153   12.390385   88.031082
H    4.811035   85.651451   68.827049
H   16.007284   64.137489   10.077614
H    0.925083   44.473068    1.119018
H   50.112419   38.164612   59.764206
H   68.216599   72.291611    3.870801
H   94.119720   26.688797   89.246078
H   83.390190   97.947105   24.296600
H   52.310173   42.528847   23.475401
H   37.680099   50.062466    8.133111
H   93.052223   35.561909   54.168118
H   76.737175   53.028545   73.580002
H   71.040367   25.258263   72.656380
H   63.632568   40.086082   51.766438
H   33.121552   54.934807    1.446881
H   17.745829   86.218910   60.528294
H   62.834606   47.045158   66.506813
H   98.189026   11.629711   58.288021
H   27.219505   40.836842   95.185158
H   68.679245   28.835787   11.631701
H   28.849508   16.224405   86.845810
H   79.212494   14.843235   93.420959
H   38.322876   41.893040   21.895454
H   68.025154   53.104862   19.193752
H   92.904800    1.601344    9.290792
H   13.523851   30.677809   88.057480
H   51.453144   45.109207   75.492004
H   26.337921    9.510655   42.757874
H   59.457657   23.713718   51.099434
H   45.757225   40.440536   34.665443
H   48.190189   14.009070   51.159275
H   76.171059   93.537315   29.980511
H   58.128403   94.485741   94.334984
H   58.484810   86.655891   27.096462
H   54.399300    3.732440   29.037817
H   29.547335   80.720627   36.312695
H   88.275261    5.659883   36.097031
H   93.946251   31.676573   29.358961
H   60.276932   21.420946   35.921185
H   54.257740   37.637379   19.189346
H    5.072049   90.400566   60.476006
H   51.886528   75.427803   29.424950
H    7.361003   17.387115   53.875221
H    2.281057   37.432224   33.743450
H   47.625469   75.235451   84.683456
