100
TIME:    4.681, STEP:  4681
H    0.765992   92.749855   94.860428
H   71.197609   58.521767   73.258728
H   60.216812   10.674087   68.398674
H   82.262299   39.793816   83.581795
H   53.243759   47.960297   38.782715
H   55.435612   96.136818   42.321415
H    7.639794   77.421692   56.513302
H   51.968925   93.568359   78.400383
H   38.560020   36.234406    5.434034
H   46.920418   83.595589   90.991852
H   64.839813   54.592686   88.851837
H   77.180855   58.324959   59.730247
H   45.362778   78.520653   59.894287
H   23.305367   90.647713   13.465678
H   37.439537   51.901459   25.760426
H   13.311016    2.311583   44.477478
H   47.689003   91.582916   99.518242
H    1.168117   67.054634   37.258251
H   18.176548   74.728073    9.976465
H   66.400414    6.409758   35.036842
H   86.499550   90.208710   30.194202
H   11.152374   50.298080   20.647858
H   23.245934   56.551949   98.420380
H   84.125854   92.822906   59.422226
H   62.164581   14.932381   71.110085
H   25.207682   88.273788   50.237774
H   58.431854   47.894276   92.844948
H   37.572704   74.932968   21.500154
H   12.955062   73.788994   35.898079
H   80.483887   74.984825   55.514503
H    0.280823   41.809750   39.033119
H   61.318401   23.181664   65.920433
H    0.079939   25.997759   19.498404
H   75.884720   44.736969   74.548286
H   64.414307    5.072348    9.769386
H   79.549133   52.064823    4.710873
H   28.768145   33.108383   77.309860
H   70.516136   73.289818   52.765766
H   47.487156   79.426811   90.688889
H   22.295900   73.964302    6.325262
H   15.338608   16.800924   52.628033
H   10.919165   21.943277   22.717951
H   51.561031   91.570511   39.587364
H   80.445679   91.217041   38.418678
H   50.613094   47.202011   56.676533
H   17.696384   52.199726    2.176630
H   78.304977   79.406273   70.400063
H   56.489407   43.582748   58.211678
H    1.862892   44.768772   57.748863
H   24.052250    1.979163   56.267914
H   43.187489   17.723183    2.772024
H   32.619530   29.377188   66.764252
H    5.969377   49.150757   31.003458
H   68.288078   30.829544   38.375267
H   68.086761   68.820808   40.161526
H   99.423203    7.609765   33.274521
H   93.007416   54.478493    1.189404
H   77.498672   34.825294   92.982651
H   59.456139   36.553329   52.120819
H   50.120243   87.585098   30.471809
H   54.981903   60.882130   49.427582
H   32.776787   84.371994   83.554001
H   91.853386   87.859787   12.480247
H   64.476784   67.262558    0.047912
H   18.118597   86.980469   31.490644
H   13.784168    9.566494   22.960577
H   12.002939   10.197776   93.060287
H   57.017097   85.248245   89.981468
H   90.202072   13.439514   66.649811
H   25.223738   83.583496   91.876282
H   73.389442   76.904587    5.994930
H   87.997284   96.171494   99.342247
H    1.780899   86.765205   41.728470
H   27.161480   53.157421   25.024162
H   87.861092   35.313068   56.249722
H   36.320160    7.580481   80.957169
H   91.959305   20.828033   73.834557
H   51.902218   44.641682   72.954948
H   85.983910   39.769154   69.911995
H   69.960083   54.017437   17.648766
H    2.471906   77.708755   59.761196
H   92.545921   74.798050   95.354759
H   13.957598   85.402161   75.739120
H   72.194321   12.722158   35.879776
H   24.403639   56.086700   93.982048
H   43.559628   80.996178   66.846039
H   79.788124   63.006088   46.751724
H   31.302595   30.521944   47.062820
H   52.827988   33.541054   89.906258
H   52.475887   16.685760   91.552170
H   15.588523   26.192753   32.315960
H   24.645231   47.535255   22.721022
H   85.514763   67.973076   80.993454
H   99.663528   97.169556   42.434193
H   75.658897   30.434174   23.650497
H   80.552979   10.884308   25.669411
H   91.046867   36.313503   67.980316
H   24.047956   56.093597   81.129753
H   85.721161   57.028248   52.954933
H   29.965952   58.509060   46.805065
