100
TIME:    2.712, STEP:  2712
H   33.920319   73.317131   96.663101
H   25.831093   51.786018   49.072102
H   26.371618   69.016220   91.502937
H   81.931808   20.916048   91.508972
H   70.879913   90.136276   92.171890
H   85.965096   98.269981   47.324635
H   10.835070   44.465439    2.534807
H    6.728447   23.224680   59.188053
H   86.961800   25.545761   29.375896
H    0.730112   55.323662   13.887759
H   47.991394   75.365799   78.515472
H   52.332718   59.629196   99.886467
H   70.750969   97.627441   55.577606
H   20.798668   96.716713   63.625736
H   13.488220   27.780241   20.408476
H   92.480194   74.527618    7.921515
H    6.024204   61.347015   20.272409
H   59.099045   62.816078    5.523743
H   87.505974   92.124130    6.242280
H   19.453583   48.221355    0.978238
H    3.342767   86.229095   83.634216
H   22.382431   47.684204   88.326447
H   49.534920   72.565697   54.757126
H   67.067322   69.207886    5.656287
H   32.586418   71.086182   56.571213
H   34.223743   46.799496   34.975975
H   28.219666   29.741919   53.783100
H    3.711744   83.026711   56.417858
H   70.140518   95.146126   28.973902
H    4.984059   23.718307   98.985283
H   22.788778   65.244843   94.814140
H   36.994423   77.581078   48.200630
H   61.388355   70.059517   42.115334
H   92.689171   25.184036   57.498550
H   13.358159   53.913757   89.870781
H    8.351987   97.526054   11.317277
H   39.915100    5.215815   22.160154
H   51.897980    9.316738   13.820440
H   30.598328   22.326525   81.499466
H    7.753706   58.295654   51.409336
H   49.904858   49.237553    6.239402
H   87.882042   33.574265   30.212687
H   34.600880   79.763000   97.364586
H    6.180051   58.225487   45.898712
H   21.410044   24.889904   88.183815
H   43.099056   14.644032   94.181374
H   62.921116   72.325348   51.492104
H   56.384251   23.305895   36.381096
H   44.303101    7.842356   36.291130
H   82.762291   72.023750   93.984406
H   43.337711    7.817183   82.011734
H   36.930134   12.085480   96.023277
H   65.137001   37.733826   45.361191
H   13.891140   62.962196   51.489166
H   24.857788   96.253204   23.417799
H   96.959549    9.681768    0.303927
H   68.179512   11.293427   13.921322
H   24.115326   20.772694   43.701492
H    4.167358   53.357616    3.281099
H   80.054398   36.241566   86.474861
H   30.776178   52.450207    2.947728
H    2.660137    2.699713   72.646362
H   58.187038   22.215311   47.504562
H   29.267157   56.547104   53.512196
H   39.966167   44.241337   48.124825
H   34.742653    7.451313    6.539745
H   69.979622   42.123112   97.996902
H   93.029243   72.639221   95.851883
H   92.067253   54.919304   90.140266
H   85.329407   84.548897   96.022430
H   35.915047   10.874944   29.617302
H   50.349838   61.519104   55.182526
H   30.164656   84.159782   92.209953
H   70.509209   77.759415   42.026329
H   92.928368   32.503902    6.985604
H   89.770470   81.386955   13.446793
H   13.186625   91.488663   39.012913
H   59.395016   73.390556   64.215317
H   91.563538   45.552731   47.938446
H   66.523750   61.254223   87.280045
H   63.953945   57.338543   42.078236
H   44.808762   61.938980   60.001808
H   89.388443   52.524414   88.204559
H   36.731770   44.230927   15.718536
H   20.277493   79.247650   84.854515
H   88.873596    8.669865   30.112850
H   48.283073    6.168442   52.861969
H   99.613007   88.165253   67.540779
H   11.964081   43.171959    6.012191
H   26.560986   97.694656   21.165760
H   35.008850   19.872406   90.734207
H   78.951614   99.465141   85.198906
H   59.291080    8.894945   28.723328
H    9.352331   77.736320    9.675290
H    9.701107    6.804464   78.405998
H   17.921707   88.637825   27.370819
H   47.336319   23.316463   81.219841
H   16.822241   39.328735   12.641994
H   79.520103   48.540661   17.879158
H    7.665665    9.043264   36.481598
