200
TIME:    0.242, STEP:   242
H    9.532611   62.468357   15.373775
H   27.982111   32.907364   89.978371
H   18.095772   69.225693   45.446709
H   17.909924   76.997139   44.447395
H   15.188909   83.779938   53.629745
H   89.553528   52.760712   65.490227
H    3.388208   55.302711   49.690075
H    2.933446   88.972748   25.001339
H   87.509697   87.476242   47.670628
H   10.790798   74.870872   95.993568
H   12.263388   94.636909   93.024872
H   30.786072   42.076225   12.837573
H   11.223262   87.074257   61.209709
H    4.309147   53.215374   42.362179
H   19.525309   71.959984   42.973671
H   29.242092   25.883961   54.279861
H   84.301498    7.812170   15.334946
H   36.514687   83.263184   43.484760
H   65.091965   29.629509   42.513275
H   90.062614   79.677208   37.393192
H   58.109077   76.858093   25.748844
H   89.984505   48.890816   70.497620
H   94.945320   62.526917   49.088219
H    8.650594   88.077415   91.579811
H    3.333392   12.784407   45.338985
H   18.659437   62.425030    6.890493
H   98.934486   58.836887   49.162277
H   94.556183   70.211937    0.736534
H   11.152829   56.468941   38.326653
H   92.959045   20.817923   98.556717
H   13.358881   51.532810   16.197258
H   31.889683   63.553207   93.652367
H   27.074974    9.028574   73.203583
H   96.360359   63.580101   38.325256
H   47.892460   89.718369   34.203876
H   32.995926   49.876350   79.499413
H   86.321869   74.385834   85.969948
H   32.815975   44.807049   15.077518
H   52.996231   46.328999   44.476089
H   90.063568   39.680264   63.618256
H   80.504906    5.130376    1.590665
H   13.438860   43.064949   39.771835
H   76.665848   87.735985   50.402546
H   37.276810   63.331085   18.819864
H   28.845339   76.356171   44.436089
H   41.031647   13.786448   42.709629
H   80.011841   26.114197   96.222862
H   90.067131   65.550575   47.575760
H   87.157715   28.676266   61.167774
H   62.045826   17.810530    5.627812
H   78.160660   70.470802   27.789471
H   21.061663   35.732403   63.584648
H   52.230698   94.364998    7.954391
H   22.376827   82.225906   81.732780
H   77.114243   76.340454   90.708672
H    5.280016   72.300789   78.713715
H    5.424776   16.753029   49.633137
H   67.430527   58.625889    5.267343
H   28.138960   74.516098    7.174858
H   43.057034   95.977943   66.957260
H   50.413040   15.337385   42.178070
H   89.972626   16.429621   49.081509
H   71.502411   25.247900   84.817444
H   24.174496   65.155190    3.712158
H   71.380524   76.108887   18.011385
H   38.661247   16.638826   32.899246
H   86.100441   23.119801   85.876442
H   97.330223   91.454475   87.311150
H   16.593626    5.880275   61.954491
H   45.225452   41.664845   50.982487
H   58.464287   76.626724   73.334839
H   32.084286   23.769262   44.750828
H   77.557266   25.697674   99.428787
H    7.930520    8.920732   60.630848
H   79.169388    0.903956   67.518677
H   53.364311   19.005993   62.864403
H   95.419128   30.024652   72.117287
H   26.481163    6.006357   47.899147
H   11.545765   29.782534   34.894161
H   68.245956   90.655792   94.166779
H   43.452984   30.068247    1.103935
H   26.724400   68.554283   87.795403
H   10.991910   13.688239   90.221199
H   24.608847   61.924995   93.916718
H   38.836998   99.345001   57.725517
H   24.723560   85.704346   27.741188
H   35.944855    2.788277    1.775909
H   75.314857   18.469908   11.517625
H   65.749100   72.055641   77.173607
H   23.434113   86.136803   54.843502
H   41.158981   34.910061   80.745590
H   84.041496   88.553009   98.411484
H   47.354702   16.839542   95.672867
H   59.938183   94.361794   69.159584
H   25.175579   56.899147   68.023079
H   69.189247   27.754013   28.967646
H   79.332726   14.209997   98.415359
H    6.839712   28.469788   48.612507
H   36.972588   69.757996   52.888336
H   67.239204   97.959885   27.250895
H    9.955480   80.481689   69.033974
H   90.646675   76.686829   65.853569
H   23.220854   37.096863   30.530792
H   21.972006   67.943176   90.241791
H   25.336088   27.446449   25.152378
H   87.502281   26.674963   43.797134
H   65.753044   30.121614   56.249924
H   64.739418   34.351166   18.664270
H   72.847389   40.064407   99.229301
H    4.430980   28.032503    5.547053
H   47.220856   96.049400    0.797258
H   86.074265   63.395599   90.533943
H   57.059303   80.297867   93.891869
H   63.217400   19.354229   74.902405
H   63.783516   82.051849   26.702534
H   13.956872    5.738802   79.024612
H   32.492710    8.470872   84.203415
H   40.760967   27.094921   33.938530
H   18.938295   57.788700   83.440811
H   70.835411   46.714779   49.417366
H   40.575447   21.772724   87.454292
H   18.202801   27.432652   48.246994
H   32.284615   21.738216   24.088480
H    4.047845   67.246849   17.777622
H   76.856529    8.902577   92.746986
H   47.795620   62.407154   25.492769
H   95.336922   49.199265   70.977524
H   75.384926   87.585655   35.019466
H   92.492332   52.411274   84.844688
H   67.842133   24.139866   66.535683
H   48.689690   85.114288    3.487777
H   81.623238   86.071213    9.374150
H   92.431221   82.692039   97.390030
H    0.822510   13.054235   49.731712
H    4.524885    1.333958   56.324982
H   62.304810    1.624284   83.652138
H   68.896027   86.569618   55.438225
H   91.235405   64.158485   83.166771
H   46.365509   44.361603   71.549614
H   43.449028    8.994008   95.401917
H   50.716671   63.009850   14.974547
H   57.146225   41.071594   46.293514
H   54.941208   56.797802   99.316788
H   57.621437   26.455296   78.157570
H   40.395947   69.700745   49.133945
H   46.013412   62.010193   29.750381
H   44.778557   96.769035   47.267574
H   42.597832   73.344246   68.813499
H   65.238739   64.708786   97.924576
H    9.525734   88.696632   89.922089
H   76.149727   61.343914   51.329098
H   33.871559    7.054363   48.089653
H   76.268661   31.763805    3.394384
H    9.962761    1.188648   75.903099
H   13.691845   53.931858   60.789398
H   63.561470   43.533863   54.122490
H   59.332195   60.943562   80.779465
H   46.074501   36.627808    9.770988
H   12.290268    1.726796    2.530757
H   63.657253   56.862213   78.317825
H   53.975594   84.328133   83.362709
H   43.510204   23.045937   35.526649
H   65.305443   34.482750   37.231220
H   11.348091   20.238415   71.113220
H   58.935036   22.156225    9.844196
H   11.948153   64.375618   62.290890
H   74.865395   97.534615   52.242901
H   23.633961   31.023560   48.095417
H   94.100136   28.163706   36.852211
H   26.564224   10.444621   90.380829
H   79.326782    5.657604   35.975906
H   46.093849   65.372833   57.464256
H   37.711586   77.368301   90.367752
H   71.199730   74.496338   74.290298
H   71.344910   95.021500   99.137383
H    0.969124   47.671654   23.288664
H   35.397198   52.983627   86.991631
H    1.747727    9.202766   64.905777
H   75.550423   21.333071   69.111450
H   86.205391   54.476555   86.413216
H   81.381302   85.261086   41.672798
H   19.268007   30.108486   69.689178
H   65.543076   90.163681    6.109614
H   51.524467   25.224043   77.263863
H   85.548828   88.247635   78.388596
H   99.302299   36.240646   83.964211
H   31.421663    4.490308   99.309464
H   90.324966   67.309273   25.596527
H    6.560459   61.182323   66.566269
H   49.649940   58.262432   65.728287
H   47.915813   30.958176   79.287178
H   47.636520   84.983551   24.598913
H    4.144896   17.571606   57.852028
H   35.068623   63.610909   33.353588
H   84.825974   54.166004   21.809742
H   75.333023   10.388353   29.538971
H    9.474574   85.613945    3.534281
H   28.851366   97.366432   46.910309
H   11.886640   11.617491   77.927620
H    7.986876   34.924984   97.721008
