100
TIME:    0.903, STEP:   903
H   56.256020   39.211555   98.319290
H   76.151634   53.705410   34.961147
H   95.279236   38.869045   12.737167
H   81.628174   95.445580   90.666618
H   87.082962   45.136955   41.220619
H   14.013744    0.230859   68.173485
H    5.644980   22.312117   61.068546
H   48.912277   66.721939   25.283363
H   31.430534   99.473511   43.246712
H   50.162987   29.349804   43.051453
H   16.260162    2.576822   52.767410
H   21.374760   68.953453   28.652075
H   85.822372    7.074608   35.378197
H   10.370491    2.293111   25.958660
H   91.484764   89.365051    7.365248
H   65.216537   32.754055   58.083481
H   51.466682   41.713821   55.571068
H   20.440834   50.787827   68.241013
H   59.325447   16.234385   10.937113
H   68.206001   86.599579   77.792519
H   10.691238   66.321747   32.735497
H   48.933399   45.291794   42.367023
H   73.687675   87.278175    6.513470
H   35.143066   47.511814   40.010353
H   97.288200   14.559811   43.225090
H   42.518490    0.703916    4.535334
H   84.212326    4.939588   17.885206
H   56.347702   98.588181   96.621140
H   30.806030   31.018873   14.487194
H   35.617641   68.490616   55.174343
H   51.623203    3.019618   37.955833
H   22.772985   27.563599   15.668816
H   33.963619    2.414945   79.146324
H   16.256050   90.968239   33.708534
H   58.326347   90.660164   79.714615
H   51.067505   55.420300   17.537237
H   66.407585   71.466164   79.618233
H   26.668480   42.426716   86.163689
H   10.124102   61.231606   55.579346
H   78.140465   27.647139    9.079844
H   73.530640   87.165672   63.618694
H   50.464684   52.386230   45.224522
H   19.018904   68.914963   66.696663
H   21.696539   27.904360   69.023811
H   78.326424   96.264084   33.380157
H   66.418678   80.179497   86.859413
H   45.614918   74.453430   35.339302
H   56.287640    4.680669   24.450422
H   91.426811   57.661827    8.452231
H   44.828587   44.493633   20.508179
H   43.475727   82.464516   62.937962
H   49.016609   79.947708   14.781006
H   27.610941   27.244629   50.425774
H   55.778919   92.470451   71.663589
H   68.872955   37.666561    8.068665
H   94.696091   11.582935   61.886551
H   53.496918   63.491295   41.870323
H   58.819275   91.610207   90.295609
H   61.493462   76.922287   42.159756
H   99.430984   97.194565   37.926109
H   16.662443   36.577362   43.990242
H   66.861908   19.540359   54.498383
H   35.482666   45.576012   71.608742
H    5.046172   46.706581    2.621885
H   68.165627   88.722984   79.656242
H   45.872536   97.382362   99.578270
H   15.119184   79.580811   10.658848
H   17.989586   69.180588    9.371222
H    1.906304   84.902512    3.596890
H   48.678192   93.561180   99.831665
H   93.357201   33.961636   51.317356
H   99.511185   21.556877   22.734636
H   48.114807   73.639320   38.594662
H   10.315701   92.235825   49.540627
H    5.709922   29.928560   69.851372
H   47.007710   65.447899   35.169392
H   48.941906   48.280144    7.012362
H   74.404907   91.675743   64.311127
H    4.834424   50.857273   27.757229
H   55.240738   59.776405   43.126862
H   28.552906   38.623608   33.958263
H    9.075512   50.124832   11.269278
H   74.931374   22.328779   15.906012
H   12.287409   89.432472   80.950996
H    8.360508   92.400314   60.216728
H   30.508930   42.223621    4.490246
H   27.464056   37.697472   66.601608
H   70.491684   32.997459   86.354515
H   74.422310   43.894173   20.812283
H   86.499496   72.127625   56.494534
H   60.977024   22.191587   52.531445
H   45.099812   63.420265   50.727890
H   43.221718   54.686378   88.773155
H   34.506256   68.007668   87.703163
H   40.980396   68.845184   36.835655
H   68.505676   60.072441   20.808037
H   90.926743   19.501524   85.256546
H   10.180661   23.926178   41.588112
H   65.695213   40.742771   69.410500
H   95.320786   55.510273   10.713966
