100
TIME:    7.779, STEP:  7779
H   91.260490    8.649753   92.024124
H   85.639999   26.396320   68.597305
H   13.484827   33.555817   32.025936
H   82.782288   12.155357   13.768736
H   25.492483   96.278496   54.784286
H    7.384959   92.780525   49.126884
H   45.272259   86.612869   98.781082
H    8.472237   61.583210   93.951424
H   62.405205   38.374329   10.426170
H   62.287666   28.079912   12.298107
H   76.671402   79.247620   90.436874
H   58.940483   13.611477   39.210899
H   47.708763   91.133575   52.050732
H   69.911690   81.098824   49.226154
H   75.089729   75.174210   76.808868
H   88.745987   31.349304   87.315704
H   98.566017   96.491989   81.541412
H   67.417145   16.312637   29.867668
H   66.421921    4.690266   73.188766
H   82.936661   40.617085   45.963081
H    2.659832   81.793396   46.107090
H    8.160645   54.410721   56.824570
H   81.881340   31.356421    9.783341
H   96.276413   29.887667   29.337273
H   51.362251   69.247437   93.989601
H   10.928722   96.778549   58.844757
H   91.287018   19.112589   54.317921
H   76.171776   19.537115   23.904207
H   80.317543   54.863605   89.455132
H   99.275299   98.308853    1.797225
H   22.207502   19.613930   93.929359
H   56.928066   37.585438   79.123085
H   18.298910   99.334221   98.590706
H    6.782624   60.823769   44.033798
H   87.357750   70.690575   98.331573
H   48.852665   94.713120   94.970070
H   25.906651   19.651667   21.419950
H   42.471588   16.591251   71.382896
H   16.717007   11.926298   90.469734
H   30.498924   83.939529   50.070610
H    3.612485   23.099592   25.614347
H   44.642250   72.108505   77.091118
H   78.233307   10.151770   63.357494
H   82.628021   43.212608   41.324673
H   81.884819   24.973263   21.780212
H   77.711662   11.287448   14.764315
H    2.509629   47.886971    0.134060
H   56.662411   75.491165   49.897976
H   92.419502   88.193550   34.166153
H   89.061768   49.134792   39.624695
H   42.967449   18.631338   35.428604
H   83.187714   41.905407   63.393921
H   70.232170   67.114014   51.078865
H   96.550690   80.283508   75.082352
H   21.419491   40.319336   66.513260
H    3.284494    4.350970   27.811279
H   89.406998   65.086662   95.834984
H   46.815109   42.257072   13.185395
H    3.787125   67.459755   14.292080
H   45.684410   25.707806   42.357323
H   50.406139   16.812420    7.884673
H   22.826027   55.536240   43.379593
H    2.176345   76.457916    0.041076
H   77.210442   84.138565   15.937989
H   41.084862   39.548534   19.993467
H   23.471508   55.556175    6.139228
H   63.444794   17.303146   42.632854
H   43.017097   62.426750   38.083786
H   44.607170   90.837013   72.348358
H   88.012199   39.362949   85.344467
H   75.013893   66.119064   68.837807
H   32.685955   93.306053   26.244097
H   99.785248   33.531475   62.298985
H   58.959187   57.085613   40.951324
H   37.192795   39.769360   91.110794
H    9.555560    6.133288   72.500465
H   73.281944   52.509064   28.702620
H   97.451889   42.072399   44.045361
H   34.544319   30.669346    4.469959
H   18.035831   85.260155   50.753365
H   63.101830    9.759683   44.923111
H   25.026752   94.918579   36.213223
H    9.913426   37.210484   70.776428
H   85.331902   77.824951   52.925053
H   73.557434   62.296253   93.666298
H   72.259750   94.789200   81.980499
H   86.696602   37.755806   94.476006
H   81.136742   82.591064   14.921822
H   17.120316   61.049873   64.568611
H   78.571075   89.226212    2.298619
H   42.371449   93.475578   97.740036
H   53.866123   80.534698   81.747017
H   84.102463   60.929417   20.566591
H   99.076698   85.115807   51.324780
H   22.097843   52.934921   94.840332
H   36.435120   88.548218   65.653435
H   45.141655   14.100408   89.811043
H   23.262049   71.363136   22.718115
H   38.139305   70.393806   93.463982
H   22.395304   79.010941   48.365017
