100
TIME:    8.144, STEP:  8144
H   66.576653   75.177574   91.689957
H   75.559280   46.176250   91.610306
H   19.758821   59.815811   27.741623
H   82.843552   97.116692   93.761909
H   22.221819   25.534763   44.887360
H    1.724297   92.385094   85.273811
H   26.143528   11.258960   27.324574
H   79.783951   93.161827   60.439697
H   53.432808    3.280242   87.451431
H   52.318336   33.320774   26.590729
H   42.719986   93.934280   55.277580
H   45.008484   31.907055   13.230385
H   24.433998   69.039536   15.779013
H   51.838799   79.973793   77.002525
H   79.523018   42.570602   59.254692
H   74.070465   99.424828   57.017853
H   69.214973   20.633564   14.768804
H   75.219955   98.552116   17.215252
H   72.108337   20.003414   92.420105
H   73.100998   32.867184   70.814003
H   81.000221   45.456829   36.201809
H   43.153553   54.895264   25.741425
H   77.008064   28.389292   99.339951
H   62.363846   34.254120    2.229049
H   38.307442   40.300682   96.685219
H    9.207760   86.018356   24.495430
H   59.813637    3.939532   61.561001
H   45.374359   36.574085   35.969505
H   88.254021   87.979599   72.200951
H   13.270639   89.275192   30.812771
H   36.572971   52.343376   65.051720
H   79.974480   27.501934   45.333183
H   44.009571   72.628670   31.472792
H   22.205429   27.373604   28.656828
H   78.273964   43.054924   20.539167
H   80.581863   23.302305   93.822762
H   60.913723    6.283575   50.180630
H   27.386284    9.911322   97.141640
H    1.309641    3.974504   55.098106
H   96.119919   49.769745   78.788086
H   78.667038   35.622520   34.213589
H   13.882085   73.539856   95.726524
H   81.374481   12.341263   89.723244
H   59.320881   49.339813   77.011993
H   50.223587   10.573246   53.014580
H   72.999901   18.247879   16.247183
H    5.362932   67.736519    3.639511
H   56.684689   79.250549   72.482124
H    3.089867   57.963089   19.605991
H   96.725342   54.690327   14.103578
H   42.942387   83.392647   39.277100
H    0.926492    8.035734   39.434113
H   77.801064   69.230408   29.881369
H   88.096252   74.329758   91.189224
H   92.357124   72.306793   69.615448
H    3.739101    3.967026   15.385818
H   12.546939   54.554817   30.549721
H   19.636789    7.786721    3.783450
H   32.574337   82.881584   86.271423
H   21.599289   53.763950   31.975853
H   73.430283   99.838745   79.425331
H    9.871468   52.138870   26.863800
H   26.956326   51.551300   75.011932
H    2.273160   86.126862    6.027765
H   55.573807   10.396080   53.984360
H    1.050239   37.410881   27.721195
H   34.160583   29.922146   60.254620
H   17.804161   83.301079   55.532898
H   62.799805   64.610435   49.456116
H   95.425148   57.694820   84.570312
H   63.423710   41.284027   64.460213
H    2.629315   81.186913   52.997288
H   75.986954   15.476801   52.939510
H   50.925243   33.986286   19.264673
H   54.775574   40.306812   18.785055
H   18.184916   29.526432   47.940979
H    6.431558   20.916313   35.176407
H   14.598638   18.207272   64.204041
H   52.046341   29.597225    8.543322
H    0.136491   65.377190   19.308205
H   70.247444   13.535775   66.738678
H   52.414917   97.285599    5.677494
H   33.000282   43.314610    5.535803
H   10.444005    9.058678   19.589062
H   55.785294   39.464260   58.283531
H   63.860958    8.195739    7.327277
H   11.074204   11.217213   11.880684
H   87.006950   53.383812   11.137375
H   24.696171   40.726921   61.583382
H   46.300106   74.210953   15.345922
H   57.308735   13.184466    5.448393
H   80.872429    7.986273   88.703270
H    7.499640   71.879753   48.792603
H   34.352119    7.259889   75.936211
H   15.786255   20.239418    3.227664
H   66.582596   74.134460   46.800819
H   16.170095   35.046013   68.819756
H   22.557512   89.424889   15.390100
H   20.751457   71.969963   62.893124
H   45.065784   69.643112   13.202300
