100
TIME:    5.872, STEP:  5872
H   20.222994   83.529900   93.770035
H   38.304085   23.058455   48.354465
H   80.696350   96.359680   54.417240
H   82.462204   90.723175   18.298187
H   42.576080   43.424118    6.491827
H   36.962536   94.846519   60.270977
H   45.218227   57.844372   49.651127
H   58.358673   96.605148   69.047142
H    9.282967   21.724655   30.465044
H   14.375994    0.696643   37.630283
H   54.055893    2.515379   74.128136
H   31.723183   18.023380   74.953819
H   69.362411    6.498581   41.550224
H   64.334480   86.976723    4.100964
H   51.923592   45.516556   68.512238
H   65.423462   98.142311   45.613983
H   51.915840   70.356880    7.939672
H   26.636801    9.107056   95.972206
H   36.725704   24.690561   72.720764
H   34.314919   81.113808   16.125635
H   15.823906   71.641785   97.868309
H   25.334702   51.879150   19.223206
H    7.343178   46.865623   64.345596
H   73.465172    7.074435   70.968399
H   19.567886   20.480537   79.905922
H   19.778433   53.069443   38.241165
H   55.730499   98.383987   16.475309
H   37.079563   30.524803   60.872429
H   38.852165   81.845917   79.599884
H   26.151329   45.507866   50.195511
H   47.156288   48.608753   44.804985
H   36.518803   90.275543   55.663597
H   83.973137   38.858437   26.793089
H   26.208012   35.588890   24.372725
H   34.810135   15.041267   82.291901
H   83.080719   45.349220    0.964839
H   43.000092   89.489380   71.155983
H   21.292774   51.494915   36.812031
H   97.212036   53.475456   75.271980
H   10.117029   62.467243    0.030724
H   33.941513   57.663406   80.687477
H    5.353774   64.630188   79.734795
H   61.819813   98.712585   25.615128
H    4.397591   11.204245   54.868347
H   47.302868    0.214428   58.593365
H    2.328191   74.916245    7.016837
H   87.609665   44.177750   81.831017
H   56.553013   55.849670   31.903982
H   36.673889   46.130249   10.236793
H   49.031338   20.106947   72.967941
H   43.098392    2.739443   15.327447
H   90.501228   18.861393   88.575722
H   30.675037   56.056580   61.833843
H   40.708809   11.393826   90.932213
H   73.257469   73.199600   50.293095
H    0.909320    6.356949   92.730057
H   68.509911   20.112938   14.463631
H   88.814606   22.349806   62.306259
H   53.388084   86.875145   60.687889
H   71.526413   79.129868   96.596947
H   30.111324    5.497505   56.567616
H   90.509163   73.286331   29.664619
H   72.711449    6.587999   30.809784
H   46.259735   73.750397   67.717743
H   65.394623   91.857162   42.403126
H   40.619621   50.358513   93.381798
H   16.446922   51.371288   50.562759
H   74.746498   53.363499   46.918156
H   49.562893   27.861855   91.950562
H   49.349960   43.487053   89.368378
H   35.570976   95.869766   91.709236
H   89.793961   56.644745   86.542374
H   24.126186   27.853210   11.188377
H    0.946280   77.779503   54.258995
H   45.283352   37.012264   46.535782
H   64.479408   83.913261    0.819026
H    0.094052   17.599768   94.897316
H    7.857569   66.766014   38.728722
H   43.095997   36.270809   83.196617
H   11.556780   89.143654   15.043002
H   25.778009   90.030197   30.944193
H   81.921646   82.551575   95.747795
H   89.291618    5.319583   89.162979
H   54.133133   14.638683   27.100712
H   66.411491   81.588295   78.527893
H   16.145329   24.741684   49.552765
H   59.332329   76.410545    3.543073
H   50.466911   35.190060   34.694260
H   77.543564   67.228661   80.165413
H   47.175335   67.687668   34.127502
H   64.329094   90.502838   57.467693
H   12.767435   37.109451   45.410423
H   61.859985    3.707201   73.095352
H   14.773993   69.420601   22.738863
H   55.068642   23.751446   51.017979
H   78.924698   63.852692   64.152481
H   96.510948    4.662817   99.484924
H   26.943010   77.004196   60.998970
H   28.984375   62.162182   53.196350
H    3.944556   27.950191   32.072254
