100
TIME:    9.115, STEP:  9115
H    0.912231   86.132790   90.800980
H   48.741806   98.791382   52.835735
H   36.449368   29.673042   16.344196
H   83.006531   57.112724   40.538551
H   13.520956    3.364672   18.560715
H   86.670288   91.333138   81.435211
H   75.251930   76.826973    3.258049
H    3.465271   77.164810   71.285423
H   29.563774    9.921988   26.330038
H   25.796320   47.262897   64.609840
H   52.399933   33.002701   61.745430
H    7.945549   80.578545   44.113029
H   62.516357   10.269930   19.284164
H    3.761661   76.980904   50.896412
H   91.316780   55.836098   12.561172
H   35.029556   14.497853   76.416077
H   91.132851   84.857155    3.162763
H   95.984055   51.302986   83.555252
H   87.235764   60.740788   43.574535
H   46.940273   12.246775   36.924156
H   23.379692   48.790794    9.847746
H   36.244274   56.184280   43.051819
H   64.043816   20.495916   71.559418
H   72.143661   45.870087   30.114656
H    3.580447   63.296501    3.854494
H    4.628061   57.393295   33.119640
H   76.082924   63.579403   80.823105
H   63.443382   81.897095   68.068047
H    9.367778   76.076195   26.300564
H   50.502235   65.243179    8.005249
H   74.789482   39.415424   88.229309
H   41.283894    0.676245   55.442863
H   12.404707    1.586094   18.948141
H   63.232605   38.387268   87.751518
H   54.108604   69.536598   79.617142
H   64.988831   99.357834   90.770607
H   54.045532   70.723885   26.691549
H   87.252205   92.143394   65.660149
H   60.326931   82.817528   61.001129
H    4.662695   58.868347   55.184647
H   12.306002   68.938034   57.089931
H   32.051437   77.347641   45.297314
H   89.730865   18.166603   59.857639
H   97.322548   65.644386   71.949776
H   65.996109   72.271248   36.107334
H   60.467415   36.765484   20.192019
H   12.954345   20.543226   12.964304
H   56.743954   89.251541   32.561695
H   31.470619   77.545570   80.873627
H   17.107779   69.472313   46.212376
H   42.875713   89.648750   49.515152
H   48.118343   17.934307   75.692970
H   97.936394   74.860596   73.488632
H   65.605133   58.488571   34.035164
H   15.044941   57.400658   77.868118
H    4.948481    2.945628   82.330673
H   74.102509   26.537224   22.899923
H   47.333923   16.087851   78.773216
H    9.159336   23.910208   11.726511
H   57.521648   28.397327    4.358299
H   34.682583   54.680241    3.719962
H   75.408745   43.100937   82.930611
H   92.877853   85.291527    8.427551
H   68.951721   91.416275   79.668121
H   94.112579   32.843761   44.409199
H   41.399940   89.140038   85.134300
H   56.255112   63.488667    7.133806
H   50.730408   38.834541    1.952316
H   11.191378   94.840576   88.555634
H   15.145904    6.468328   82.510849
H   32.583614   75.215019   52.814613
H   22.669397   48.946678   24.171982
H   12.676874   67.443748   28.040745
H   29.552753   72.530617   61.571175
H    1.550466   41.736584   92.407166
H   41.142746   91.758781   82.605148
H   94.618973   36.874195   52.400337
H   60.211926   54.719490   17.836662
H   98.612022   26.745090   19.380159
H   52.516960   12.481812   35.655754
H   89.256737   23.581217   24.774544
H   25.278641    3.586205   24.443380
H   94.417519   59.553257   98.008888
H   77.245888   92.149269   30.902935
H    8.506531   78.721848   64.156631
H   41.510593   43.863472   74.756424
H   75.925087   40.617409   58.181572
H    2.623109   75.683937    1.069634
H   44.847660   86.663979   53.641853
H   60.451305   34.260735   50.054810
H   97.046013   65.612213   25.954247
H   52.716595   81.014725    7.206192
H   69.742599    1.008811   23.881525
H   28.194933   66.169418   41.407986
H   98.996338   33.263569   25.538343
H   46.783234   35.789917   96.647110
H   39.096184   90.770058   12.976019
H   20.683252   37.470661   95.894798
H   74.495506   76.162971   81.560829
H    5.380061   44.727856   19.662777
