100
TIME:    2.701, STEP:  2701
H   34.664215   74.325890   96.673172
H   26.137077   51.189575   48.378223
H   26.182539   68.224823   91.632011
H   81.929962   21.369276   92.111877
H   70.978439   89.254578   92.470154
H   86.135628   98.281898   46.235226
H   11.411560   43.722633    1.674583
H    7.593025   22.273073   60.198071
H   87.232201   26.603363   30.068306
H    1.030684   55.165718   13.456981
H   49.014587   74.923187   79.575089
H   52.752586   59.077820    0.669440
H   71.450722   98.292953   56.670876
H   21.343330   96.750618   62.788601
H   13.354404   28.762774   20.937235
H   92.922470   75.489716    8.834642
H    6.908767   60.619484   19.271036
H   58.863976   63.351006    5.905132
H   87.334602   91.662720    5.662779
H   19.749916   48.454914    0.229314
H    3.995517   87.324127   83.932816
H   21.327850   47.669601   89.263199
H   49.681786   72.655159   55.071838
H   68.089340   69.075958    6.473270
H   32.979851   71.958649   56.490059
H   34.274181   47.127216   36.006973
H   29.168209   30.199175   53.564816
H    4.639874   82.513268   56.054218
H   69.901337   94.148109   29.493849
H    4.562282   23.990555   98.110802
H   22.355860   64.258408   95.684425
H   36.299873   77.885048   49.218956
H   60.613491   70.864342   41.124367
H   92.224403   26.192123   57.961975
H   13.631602   54.745270   89.200905
H    7.395555   96.661980   11.355084
H   38.860100    5.618689   21.293394
H   52.352592    9.518070   13.044212
H   31.062675   22.566168   82.565460
H    8.789782   59.325478   50.543835
H   50.656559   48.860149    5.980195
H   88.870659   33.080544   29.695929
H   34.506130   79.697037   96.570000
H    6.882458   58.041107   44.823235
H   22.364210   25.323872   87.242531
H   43.240971   14.434223   94.136726
H   62.835094   71.727142   51.386444
H   56.383663   23.192640   35.700478
H   43.981590    8.753345   36.729965
H   82.531670   71.856407   94.753815
H   43.338551    8.879190   81.895752
H   36.395542   13.106197   96.745354
H   64.908897   37.670044   46.000099
H   14.145847   63.141708   51.003754
H   25.733528   95.288925   23.324476
H   96.945786    9.693329    0.678392
H   67.482109   11.610847   12.875113
H   24.934418   21.811539   43.984818
H    3.299838   52.892849    4.125578
H   80.780334   35.396038   86.787727
H   30.082258   52.961720    3.805362
H    3.050507    2.802120   73.144028
H   57.440876   22.965460   48.259201
H   28.511805   56.487267   53.810879
H   39.529514   45.119930   47.100372
H   35.418404    7.998147    5.889360
H   70.862160   41.742855   97.465836
H   93.789085   72.010132   95.326019
H   91.519066   55.709694   90.830116
H   85.106506   83.995674   96.045593
H   36.264336   11.623393   29.749271
H   51.256798   61.884171   54.377113
H   30.881907   84.703941   92.491936
H   70.751244   78.455475   42.680092
H   92.397972   32.488209    6.151711
H   89.510475   80.681999   14.186934
H   12.187895   92.442032   38.818378
H   58.878216   74.109779   63.607822
H   91.035995   45.585041   47.815666
H   67.063210   61.853352   88.227707
H   63.738682   57.224743   41.420780
H   43.983376   61.867142   60.921608
H   88.692551   52.340790   87.156860
H   35.975033   43.289642   16.723267
H   20.813133   79.935654   85.920845
H   89.126709    8.265816   29.348980
H   47.548409    6.968231   52.337448
H   99.435928   89.045944   67.655251
H   11.735788   43.784431    6.102188
H   27.533531   98.147171   20.772537
H   34.558685   19.278439   90.501907
H   78.137726   98.637993   84.989265
H   58.585285    8.565357   27.872303
H    8.289127   77.069130    8.933618
H    9.891319    7.789797   78.153221
H   17.013153   89.072212   27.938980
H   48.209457   22.685192   81.852455
H   16.781874   39.235077   12.818003
H   80.044121   48.493244   18.800552
H    6.982529    9.325813   37.541046
