100
TIME:    2.343, STEP:  2343
H   58.874664    7.156318   97.000931
H   36.095482   31.778078   25.795645
H   20.028868   42.468445   95.832787
H   81.869873   36.119408   11.734825
H   74.185013   60.559299    2.177120
H   91.685677   98.669746   10.780636
H   30.174217   19.547691   73.678505
H   35.731117   91.301544   93.067131
H   96.032524   61.023499   52.604336
H   10.812918   50.025368   99.437370
H   82.314880   60.518192   14.060205
H   66.416916   41.133026   26.151400
H   94.224495   19.952827   92.253990
H   39.069618   97.854073   35.543652
H    8.999310   60.740967   38.146423
H    7.317101    6.801747   38.552505
H   35.693741   36.943336   86.677841
H   51.213539   80.760460   18.317631
H   81.757240   76.645905   86.801010
H   29.394218   56.056187   75.854988
H   25.239685   22.964138   93.650864
H   87.006042   47.194351   19.750153
H   54.461601   75.566750   65.314301
H    1.351410   64.782318   33.062477
H   45.784294    0.353450   53.848869
H   35.915707   57.793034   69.561729
H   60.040230   45.081989   46.460644
H   34.846558   65.803032   44.219395
H   62.117065   61.667213   46.416924
H   90.834923   32.850967   69.650414
H    8.269700   32.155437   24.010582
H   13.695511   87.777901   82.360832
H   35.395184   97.057732    8.872899
H   77.098335   59.000778   73.044342
H   22.531437   81.807220   67.399483
H   76.269089   68.540276   12.585546
H    4.523580   18.730406   93.084656
H   67.148750   16.070515   87.780632
H   46.175087   30.365461   17.258112
H   42.508907   92.839195   22.376165
H   75.122261   36.577389   97.544601
H   21.045715   17.012169   12.877680
H   31.422468   77.550217   70.709831
H   29.742285   52.040390    9.820464
H   53.417049   39.447544   56.608009
H   47.859638    7.605915   92.683662
H   60.035488   52.258270   47.947708
H   56.364544   19.506720   13.549446
H   33.517891   38.401859   51.012054
H   75.025993   66.410149   19.792507
H   43.365864   43.442268   78.121063
H   18.998034   46.326504   20.247921
H   57.482765   35.594238   66.793297
H   22.435413   68.981682   35.205780
H   54.234886   63.906010   20.287245
H   96.497849   10.069569   12.865555
H   44.787128   21.941002   78.826195
H   51.592133   55.620270   53.205765
H   75.063713   37.766781   31.609518
H    4.405856    7.877959   96.970100
H    7.498569   69.610054   31.717052
H   15.755257    6.135017   89.340775
H   33.156681   47.378532   72.819260
H    3.928474   54.539833   63.531658
H   25.319080   73.713226   13.759854
H   57.411018   25.795448   84.721794
H   99.584755   29.366938   80.182022
H   18.518929   51.536133   78.211548
H   73.678062   81.433296   13.282828
H   77.852112   65.990791   96.799438
H   47.632103   35.982353   34.044926
H   80.775757   73.765427   28.164804
H   54.223862    2.413471    1.669656
H   78.628380    1.109154   63.957100
H   75.136009   31.977510   79.013046
H   81.048836   57.738136   38.275433
H   79.684570   23.470911   32.487171
H   42.058727   97.517220   43.835773
H   73.866898   46.636600   43.819740
H   84.620155   81.349838   19.069527
H   56.732838   53.521069   20.024357
H   17.120811   59.529129   90.856911
H   66.044418   46.364655   53.059025
H   11.346820   12.655123   49.422668
H   38.245316    2.327279   20.624741
H   97.364380   95.116325    4.488209
H   23.638403   32.997742   35.266678
H   93.672836   17.708084   71.380775
H    4.305719   63.717628    9.031071
H   59.186642   12.876854    7.975350
H   19.907867   99.947601   82.941605
H   51.648083   71.718071   78.166420
H   35.614857   97.838303    0.175709
H   73.688179   55.354023   84.794792
H   16.081863   39.858261   69.926476
H   87.443756    3.209372   46.430038
H   76.626144    2.140624    2.441234
H   15.467832   36.186920   18.546574
H   97.098503   46.950047   48.787750
H   84.749527   18.521309   72.021271
