100
TIME:    4.661, STEP:  4661
H    2.118468   94.583961   94.878738
H   71.749977   57.437935   71.997742
H   59.873032    9.235259   68.633354
H   82.258942   40.617790   84.677986
H   53.422897   46.357208   39.325012
H   55.745823   96.158485   40.340672
H    8.687965   76.071289   54.949276
H   53.540886   91.838013   80.236626
H   39.051659   38.157318    6.692999
H   47.466988   83.308418   90.208771
H   66.700165   53.787937   90.778412
H   77.944099   57.322456   61.153893
H   46.639023   79.730064   61.881592
H   24.295586   90.709358   11.943614
H   37.196312   53.687958   26.721806
H   14.115231    4.060888   46.137634
H   49.297279   90.259979   97.697563
H    0.740440   68.027840   37.951611
H   17.865040   73.889145    8.922846
H   66.939354    6.834486   33.675148
H   87.686378   92.199677   30.737034
H    9.234955   50.271530   22.351044
H   23.512962   56.714607   98.992584
H   85.984070   92.583038   60.907669
H   62.879913   16.518532   70.962379
H   25.298853   88.864914   52.118420
H   60.156555   48.725727   92.448219
H   39.260174   73.999435   20.838991
H   12.520148   71.974419   36.843513
H   79.716980   75.479820   53.924538
H   99.493736   40.016384   40.615456
H   60.055584   23.734184   67.771935
H   98.671242   27.461000   17.696646
H   75.039688   46.569855   75.390877
H   64.911438    6.584227    8.551582
H   77.810547   50.498356    4.773796
H   26.849886   33.840805   75.733932
H   71.342857   73.655724   51.354481
H   48.331425   79.862602   92.627060
H   24.179674   75.836555    4.751699
H   16.705414   16.114737   52.156841
H   12.716688   21.045679   21.778467
H   51.388760   91.450577   38.142815
H   81.722839   90.881958   36.463112
H   52.347866   47.991043   54.965107
H   17.954411   51.818256    2.095329
H   78.148727   78.318626   70.208107
H   56.488338   43.376755   56.974190
H    1.278313   46.425114   58.546745
H   23.632786    1.674750   57.666687
H   43.189014   19.654106    2.561186
H   31.647573   31.233038   68.077118
H    5.554510   49.034790   32.165043
H   68.751335   31.155930   37.492699
H   69.679169   67.067879   39.991390
H   99.398178    7.630803   33.955368
H   91.739410   55.055580   99.287224
H   78.987930   36.714027   93.497787
H   57.878838   35.708298   53.656311
H   51.439976   86.047928   31.040657
H   53.720306   61.812153   50.986877
H   33.486626   84.558151   84.458847
H   90.495659   89.224533   13.851707
H   63.103394   67.153610    0.590971
H   17.324759   88.577759   29.628080
H   15.012730   10.560719   21.778021
H   13.607630    9.506362   92.094711
H   58.398628   84.104446   89.025352
H   89.205368   14.876587   67.904083
H   24.818541   82.577637   91.918396
H   74.024513   78.265366    6.234855
H   89.646454   96.835251   97.878014
H    3.084982   87.754585   42.241318
H   27.601849   54.423138   26.212517
H   86.896736   35.284534   54.733608
H   35.847290    6.298647   82.302994
H   90.143509   22.561508   73.480858
H   50.962582   45.949512   71.850517
H   85.024742   39.827900   69.688911
H   70.940918   55.106762   19.371788
H    2.080537   77.501846   58.565823
H   91.045372   74.667435   97.027122
H   12.692492   85.067688   73.834518
H   70.818283   11.010695   37.706406
H   25.377531   57.337769   95.920830
H   44.019985   80.261620   65.457184
H   78.452370   64.460251   45.798050
H   30.980711   32.123131   47.270798
H   52.412949   34.654640   90.069832
H   54.244228   17.508667   90.837143
H   14.770041   25.112812   31.893595
H   23.165281   46.031197   22.339933
H   84.232719   67.372795   79.446823
H   97.730545   95.956482   41.085773
H   76.004662   32.225708   23.190979
H   78.901062   11.674065   26.702431
H   92.634392   35.165737   69.130524
H   23.974562   55.923309   81.449883
H   86.673920   56.942036   54.630196
H   28.723734   59.022213   48.731792
