100
TIME:    2.515, STEP:  2515
H   47.242828   91.383080   96.843460
H   31.310997   41.104263   36.645374
H   22.985380   54.843018   93.814537
H   81.898743   29.032949    2.306679
H   72.644424   74.345856   97.513519
H   89.019173   98.483406   27.814474
H   21.159676   31.162468   87.129128
H   22.212257    6.182073   77.275444
H   91.804436   44.486450   41.776913
H    6.113073   52.495033    6.172952
H   66.315857   67.439026   97.492233
H   59.852180   49.754547   13.908709
H   83.282906    9.546434   75.157921
H   30.553078   97.323921   48.633404
H   11.091702   45.377075   29.878069
H    0.400988   91.757904   24.274805
H   21.865189   48.317970    2.338178
H   54.889168   72.396141   12.354084
H   84.436867   83.860687   95.863449
H   24.760643   52.404179   87.565559
H   15.032959    5.840532   88.981857
H    3.495850   47.422684    5.102786
H   52.165154   74.167885   60.393341
H   85.370743   66.845184   20.287666
H   39.632439   86.711273   55.117821
H   35.127041   52.668674   53.440216
H   45.207802   37.931507   49.873821
H   20.333792   73.831413   49.905399
H   65.856995   77.272560   38.286186
H   97.430321   28.594009   83.324120
H   15.036347   47.579693   10.400656
H   24.555672   83.024910   66.437920
H   47.511242   84.473198   24.368017
H   84.365608   43.237961   65.798065
H   18.255451   68.805389   77.873909
H   91.223557   82.051262   11.994374
H   21.020569   12.430922    6.637492
H   60.039680   12.922413   99.918999
H   38.914375   26.618315    0.590435
H   26.308878   76.737816   35.908993
H   63.367146   42.478603    1.597183
H    5.587316   24.732170   20.958021
H   32.904003   78.581650   83.134270
H   18.759359   54.923416   26.637678
H   38.498013   32.661869   71.326271
H   45.640614   10.886555   93.381783
H   61.380550   61.612030   49.599838
H   56.373730   21.277609   24.191841
H   38.545143   24.157322   44.150269
H   78.632072   69.026787    7.763054
H   43.352741   26.836779   79.934601
H   27.356447   30.365604    8.955959
H   61.050789   36.591553   56.803459
H   18.452717   66.176079   42.795868
H   40.541496   78.983841   21.746473
H   96.713058    9.888805    7.010269
H   55.690662   16.978050   95.184776
H   38.784515   39.377167   48.775589
H   88.629814   45.034054   18.404943
H   93.055267   21.098936   92.078011
H   18.348700   61.610935   18.307110
H    9.651299    4.533737   81.559097
H   44.823948   35.649590   61.019455
H   15.739489   55.475471   58.861340
H   32.146107   59.976147   29.777906
H   46.844734   17.244789   94.891777
H   85.785072   35.313061   88.485977
H    6.637505   61.372803   86.434143
H   82.249718   69.074471    2.495090
H   81.337463   74.641182   96.437256
H   42.170494   24.279222   31.980755
H   66.592896   68.057114   40.758324
H   43.009323   93.905174   97.260002
H   74.843834   90.225220   53.734627
H   83.429466   32.222843   92.051620
H   85.114204   68.761833   26.702347
H   95.300415    8.563028   35.528980
H   50.139599   86.271187   53.335194
H   82.115738   46.131382   45.739571
H   76.184975   71.982956    4.251752
H   60.098774   55.300488   30.303913
H   30.026848   60.652420   76.474586
H   76.925644   49.235870   69.441223
H   23.179302   27.373384   33.712341
H   29.870331   91.569168    3.951455
H   93.406616    1.433686   16.432629
H   35.125893   20.491943   43.468277
H   96.441696    3.937559   69.590858
H    7.875547   54.140785    7.623960
H   43.978909    5.799858   14.123597
H   26.946808    9.234990   86.573929
H   64.375610   84.651665   81.444435
H   46.650928    2.992309   13.482313
H   90.311836   65.787544   96.392509
H   13.107635   24.451065   73.878990
H    1.650256   96.417305   37.546066
H   62.973434   12.011100   92.549385
H   16.099302   37.651398   15.794142
H   88.904778   47.691471   34.380493
H   95.431290   14.103458   55.455353
