100
TIME:    8.072, STEP:  8072
H   71.445793   81.780357   91.755875
H   77.547806   42.274456   87.070755
H   18.521212   54.635757   28.586746
H   82.831467    0.083012   97.708199
H   22.866991   19.763645   46.839630
H    2.840924   92.463097   78.143684
H   29.917057    6.396960   21.694080
H   85.443008   86.932579   67.050468
H   55.202705   10.202909   91.983292
H   54.284889   32.286961   23.771362
H   49.417252   91.037186   62.212700
H   47.756714   28.298046   18.355232
H   29.025185   73.397812   22.934134
H   55.403862   80.195717   71.523643
H   78.648506   49.001999   62.717033
H   76.965363    5.722309   62.994415
H   75.004768   15.871536    8.214360
H   73.680771    2.055606   19.711071
H   70.986633   16.982723   88.626526
H   75.041183   34.395931   65.911903
H   85.272804   52.624859   38.155727
H   36.250843   54.799683   31.872894
H   77.969368   28.974588    1.399985
H   69.053558   33.392792    7.576438
H   40.882637   46.010826   96.153481
H    9.547237   88.140915   31.270973
H   66.022385    6.932551   60.132229
H   51.449249   33.213367   33.589317
H   86.688469   81.447128   75.604515
H   10.509912   91.057175   25.089169
H   33.739048   45.887260   70.748131
H   75.428337   29.491009   51.998589
H   38.937733   77.896614   24.986464
H   19.163040   33.971992   31.689878
H   80.065834   48.506340   16.158369
H   74.322952   17.662748   94.049080
H   54.008266    8.920568   44.507290
H   30.362206   11.228994   92.060463
H    4.348914    5.543077   62.075523
H    2.901644   56.510406   73.123535
H   83.587814   33.152245   32.517300
H   19.949883   73.257507   92.050499
H   80.754852   11.909363   84.522316
H   63.918110   48.130768   69.971954
H   56.468842   13.413818   46.853058
H   73.929344   16.874863   15.954672
H    4.800088   63.820992    2.948025
H   56.680294   78.508972   68.027168
H    0.985375   63.925919   22.478092
H   95.213623   53.594440   19.137840
H   42.947330   90.343697   38.517944
H   97.427292   14.716795   44.160431
H   76.308022   68.812927   34.062904
H   89.763977   75.504196   88.011978
H   98.089790   65.997345   69.003510
H    3.649425    4.042763   17.836868
H    7.982532   56.632332   23.701942
H   24.997843   14.586432    5.638083
H   26.895752   79.839470   91.798645
H   26.350327   48.229588   34.023705
H   68.888535    3.186989   85.039345
H   12.426888   52.809036   30.121521
H   22.068233   56.464386   79.949188
H   97.329155   85.734650    7.982714
H   52.715714   16.146757   47.279404
H    5.473083   40.990227   23.463993
H   39.937195   27.432919   56.778545
H   22.777672   79.183403   52.090881
H   59.211121   69.783897   53.972046
H   93.962868   54.078671   84.723022
H   65.710106   46.183380   65.323738
H    8.558232   83.577538   47.720005
H   80.681412   19.038294   54.785763
H   52.510021   38.542866   23.542475
H   51.307190   40.200794   13.326015
H   16.482584   24.911900   52.785400
H   99.892296   27.148308   33.899246
H   11.216359   22.914913   60.227512
H   48.593887   29.808712    7.739809
H    3.667318   69.299309   25.511086
H   68.837898   12.790902   62.435333
H   47.012390   96.818680   11.700996
H   28.446115   42.110508   98.678848
H    5.490544    2.897408   26.164928
H   59.291031   43.968105   65.263145
H   65.517746    5.551055    2.327274
H    6.265464   16.452324    8.447456
H   85.848991   59.145592   11.883896
H   23.201756   44.735832   62.172249
H   52.666134   77.172867   12.772238
H   54.362202    9.296817    3.927816
H   75.545158    2.571309   87.331078
H    2.884352   69.719841   43.224731
H   27.393747    2.891785   71.081352
H   17.031281   26.688942    1.573260
H   60.635696   76.977722   50.519691
H   21.884909   30.914127   72.960503
H   22.696489   85.862022   16.835627
H   24.181389   71.659050   68.923622
H   40.593800   71.491013   20.138462
