100
TIME:    1.559, STEP:  1559
H   11.893757   79.053116   97.718704
H   57.903831   89.271553   76.341515
H    6.552591   86.065086    5.034669
H   81.738281   68.419212   54.710247
H   81.207230   97.718254   23.433266
H    3.841069   99.519112   33.138485
H   71.261955   66.610039   12.368690
H   97.351967   23.475529   65.052834
H   15.304802   36.401978    1.952819
H   32.235497   38.768288   68.740593
H   55.240646   28.972050   89.578690
H   96.336105    1.835471   81.957970
H   44.094048   67.385689   70.176323
H   77.889198    0.270642   75.881172
H   99.462547   30.770672   75.833633
H   38.840805   75.375237    3.630590
H   98.726212   85.096146   15.298669
H   34.459511   18.886703   45.498825
H   69.543129   43.756233   45.495831
H   50.514702   72.705673   22.476572
H   71.763367    1.013259   14.930729
H   11.835004   46.157639   86.509010
H   64.929131   81.942970   87.744720
H   74.193520   55.379490   91.289047
H   73.825310   62.530579   48.064812
H   39.510555   81.154968   43.047302
H   27.644115   77.672379   30.902906
H    0.998624   29.208553   18.304224
H   45.069946   90.536896   83.477959
H   60.772182   52.254776    7.324931
H   77.428383   61.848190   86.046661
H   64.193390    9.440465   54.939629
H   80.171951   54.418221   38.243988
H   43.973091   30.849586    6.073513
H   42.020439   41.071785   19.661140
H    8.103486    6.950974   15.280187
H   29.327728   47.442726   31.308294
H   99.556221   30.420002   32.455677
H   80.634171   47.227943   92.703842
H   16.353407   66.235771   60.694088
H   28.700844    9.676349   79.073898
H   91.507141   81.826927   76.044586
H   24.669416   72.848801   14.081883
H   79.806847   38.899155   33.165051
H   21.424187   70.378830   89.517654
H   57.974262   92.652321   89.501534
H   52.541676    9.839133   40.944771
H   56.322674   11.434759   65.040016
H   10.602971    3.333774   82.285538
H   58.587009   54.478374   74.625572
H   43.425678   19.132219   69.854706
H   80.897713   19.075159   71.717361
H   41.219215   31.048340   12.324894
H   40.589100   81.770012    0.611785
H   16.647469   95.174957   13.635345
H   95.516891   10.893513   39.554764
H   95.086227   44.562828    4.261261
H    9.970795   29.659557   73.399124
H   13.232445    4.639578   91.798019
H   56.139660   47.618473   19.267906
H   58.043743    6.072194   92.844261
H   43.579193   13.433876   24.814423
H   79.979279    0.840726   26.604836
H   50.093666   50.275063   84.813774
H   94.201027   36.329227   40.747868
H    5.573506   64.770546   38.365597
H   62.487137    2.262618   42.331432
H   72.674934    6.697556   40.731815
H   34.602760   37.766525   62.456207
H   61.966156   26.555841   98.450317
H   72.526878   89.326073   43.449680
H   45.420132   99.784714   70.765312
H    5.341558   41.191181   21.773251
H   95.878868   50.723724   10.552589
H   37.337494   30.861971   19.580776
H   62.517841    7.489466   91.028862
H    8.501696   91.423325   18.619295
H    5.224986   48.782120    0.536524
H   36.280037   48.935398   35.072914
H   23.069351   24.047106   86.612007
H   41.390430   45.410229   73.166512
H   58.297367   54.409012   56.414993
H   16.440540   33.277252   78.386963
H   57.416332   45.567242   21.032539
H   76.418900   51.368744   96.624985
H   15.409199   66.321648   50.045006
H   71.276802   90.000916   97.882126
H   81.051987   80.477371   79.537865
H   88.035591    7.369929   15.444675
H   28.501602   45.134789   79.947411
H   87.823219   57.611835   66.384964
H   93.637169   12.757761   63.225082
H   85.312782   74.343185   39.523849
H   97.910439    7.797071   31.934406
H   29.638809   10.083267   51.910362
H   22.688629   34.167168   86.924423
H   38.855942   57.148251   47.529739
H   12.589261   29.511627   31.092655
H   34.444725   43.570530   14.461399
H   36.060562   38.658833   47.532051
