100
TIME:    0.778, STEP:   778
H   64.709389   50.674721   98.433731
H   79.628731   46.927647   27.076170
H   93.131561   29.876011   14.204872
H   81.607193    0.595474   97.517815
H   88.202576   35.117653   44.609978
H   15.952087    0.366899   55.794163
H   12.196051   13.871206   51.293385
H   58.737030   55.907986   36.760834
H   34.503273   11.491930   51.115479
H   53.579048   27.555466   38.156242
H   27.887360   97.547226   64.807610
H   26.145992   62.687813   37.549675
H   93.774109   14.637484   47.801712
H   16.559620    2.678514   16.445759
H   89.964607    0.530639   13.374111
H   70.242401   43.687931   68.459457
H   61.516502   33.447372   44.189919
H   17.769592   56.866547   72.574509
H   57.378998   10.990130    4.351926
H   71.589638   89.220276   69.264763
H   18.108917   78.765289   36.127716
H   36.947620   45.126808   53.010983
H   75.356606   88.294792   10.089987
H   46.756912   46.012638   49.294373
H    1.758899   24.473255   42.302887
H   43.091648    4.428319   16.251501
H   94.990753   10.135850   15.404699
H   66.894646   92.753601   92.489822
H   28.088058   19.678255   20.395683
H   30.824591   71.584335   45.237057
H   46.706059   91.810036   47.847343
H   14.880411   31.016853   27.240700
H   25.158714   11.560278   67.885338
H   10.974376    2.423737   38.974724
H   61.433418    0.109172   72.102386
H   40.199432   45.601269   17.967344
H   54.418751   76.043800   69.768684
H   31.834534   44.714581   77.342201
H   15.743866   63.899986   67.560074
H   89.914528   39.349499   99.245110
H   82.073654   82.876045   60.672794
H   61.698967   46.775764   39.351795
H   17.942205   68.165375   57.667946
H   29.678316   25.809614   56.801521
H   89.169701    1.196319   22.683207
H   68.015129   77.829643   86.369225
H   44.295033   67.710953   34.271187
H   56.280964    3.393658   16.716124
H   87.772331   68.014328   13.438756
H   42.206936   42.591053   29.250511
H   43.485264   94.532310   61.619984
H   42.941704   91.546295   22.987373
H   25.017900   26.519836   57.686096
H   58.673321   94.509407   66.147537
H   78.823593   26.708120    7.007940
H   94.539688   11.714304   66.141846
H   45.572838   67.098091   29.981819
H   68.127136    3.414770   93.515213
H   51.635330   71.640839   51.756580
H    7.679512   87.587250   41.481407
H    8.777205   42.390007   53.735840
H   71.298401   20.703842   60.154625
H   27.003830   54.099953   80.184181
H   96.462776   46.026611    6.016012
H   63.204460   98.706047   68.015694
H   53.551521    3.596448   92.187294
H   25.148500   75.258759    4.623586
H   26.624153   62.031845    3.395499
H   95.676659   93.884216   11.436811
H   46.146187   87.274559    0.094749
H   97.326393   42.467457   52.816532
H    9.817814   25.705360   13.582701
H   56.264908   79.822945   41.799961
H   13.066813    0.145613   56.969749
H   99.683273   29.750700   60.375660
H   44.052273   57.436256   43.579845
H   37.592228   59.113884    4.800552
H   68.532181   99.848732   57.407520
H   98.842766   51.223484   26.363434
H   61.370956   66.584328   53.895752
H   26.106731   37.330425   26.487530
H   99.696602   49.308487   21.722134
H   67.021599   20.242617    4.000579
H    3.688306   78.736061   92.368385
H   14.447096    0.218563   72.334114
H   33.386166   37.631680   95.809807
H   19.115591   46.785988   60.641140
H   68.479431   43.005318   87.653419
H   71.828316   50.854088   21.835098
H   97.550674   77.271744   52.025616
H   55.861515   15.441957   49.891674
H   35.851078   54.018944   48.346565
H   35.201317   50.941299   79.102898
H   22.424158   60.425507   79.274590
H   43.141422   80.041321   33.963188
H   58.181198   65.008659   27.264412
H    0.848751   12.328107   92.445343
H    9.721705   22.861877   43.587967
H   71.649956   40.203945   79.881844
H   87.557877   58.721294   22.753523
