100
TIME:    8.754, STEP:  8754
H   25.324589   19.237860   91.131485
H   58.712051   79.230972   30.072296
H   30.244127    3.702202   20.581551
H   82.945938   71.985466   60.327560
H   16.755777   74.428955   28.347805
H   92.266846   91.724236   45.684135
H   94.173363   52.450897   75.027367
H   31.839157   45.933643    4.429883
H   38.437843   44.631317   49.054691
H   35.657265   42.079472   50.475227
H   85.979279   18.478271   96.520103
H   21.724869   62.483379   69.809822
H   85.536057   32.119270   55.158257
H   21.635588   78.093605   23.423153
H   86.932076   88.082405   29.920967
H   49.544250   46.072166    6.382111
H   20.162544   60.978489   70.299507
H   88.261246   68.869347   96.070389
H   81.611664   45.595379   24.556705
H   56.665394   19.913122   12.345575
H   44.801949   84.728912   19.646040
H    1.634850   55.705048   73.794327
H   68.863686   23.430529   81.887711
H    5.684706   41.551483   56.926807
H   16.491470   91.923843    1.189648
H    6.330853   68.035568   67.092590
H    7.211355   78.584427   73.662155
H   93.904907   65.046829   56.134987
H    1.517816   43.323116   43.365196
H   36.659569   74.177841   79.306671
H   60.582600    7.044297   16.790459
H   18.490040   10.649681   88.862465
H   86.976822   27.997684   86.426407
H   47.979782   71.470856    2.960047
H   63.092842   96.869392   57.654263
H   33.607349   71.083099   91.905342
H   19.421841   83.944099   98.246422
H    2.174232   98.747993   40.186264
H   75.563896   90.683556   95.985123
H   38.664543   92.662941   26.780718
H   36.977127   56.551247   48.584927
H   62.474457   75.931976   26.868500
H   86.624115   16.000416   33.783520
H   20.372135   59.583115   36.653934
H   97.311493   86.510521    5.214330
H   65.125450   29.880379   18.725401
H   10.131967    0.909803    9.497440
H   56.721920   85.533356   10.225218
H   20.919235    7.444665   95.272644
H    9.530355   63.974918   71.453911
H   42.900501   24.501511   45.708832
H   30.573904   51.433201   99.390205
H   90.450447   72.767395   94.453690
H   73.966919   64.379654   18.106007
H   43.788704   25.763304   74.799927
H    4.498856    3.325365   94.619965
H   51.216553   36.953651   88.565620
H   74.215027   50.180122   88.071434
H   80.686668    8.656007   39.441132
H   81.344826    0.648723   14.625999
H   11.909348   71.468384   31.865307
H   88.221336   46.461075   99.263084
H   68.370880    9.925481   33.182404
H   44.161617   89.449768   89.467606
H   79.785172   61.677601   10.790533
H   63.576851    7.086211   63.789158
H   85.218399   51.009335   89.704697
H   75.667038   18.188053   84.694427
H   93.199463   20.779716   11.196299
H    7.814184   88.335342   83.276520
H   44.049397   99.777077   57.144234
H   52.396034   60.933006   97.711105
H   36.214462   85.302055   37.297649
H   37.498653   95.379555   83.020973
H   84.160492   41.205021   65.035812
H   32.607445   68.623405    6.896782
H   61.832840   68.120361   45.996796
H   43.254246   78.323082   97.898499
H   81.299049   27.805462   15.350859
H   70.221031   32.148125   66.756310
H   82.189430   19.846506    3.197649
H   98.189804    1.242716   54.643654
H   71.585106   53.516026   63.630795
H   52.409691   61.258034   63.873600
H   26.083908    1.306255   99.151642
H   49.820049   30.602089   49.687592
H   51.814716   66.865044   40.967751
H   96.817436    4.570238    4.812494
H   37.356205    6.763948   56.594368
H   92.367416   49.114197   37.151329
H   82.272423   46.120434   18.330589
H   26.006250   53.863708    0.328669
H   46.601719   90.179008   95.964844
H   93.305771   44.267933   17.067110
H    5.238274   65.600632   17.244036
H   16.966141   50.045715   15.293682
H   67.750999   70.052879   33.738426
H   21.380068   19.608646    3.143282
H   91.692802   74.604088   11.797619
H   82.955765   53.990269   54.440205
