100
TIME:    8.447, STEP:  8447
H   46.085686   47.390862   91.412552
H   67.190903   62.596302   10.714984
H   24.967096   81.615204   24.185062
H   82.894409   84.633476   77.154610
H   19.506720   49.821552   36.671555
H   97.026245   92.056831   15.280368
H   10.263469   31.719873   51.019566
H   55.968750   19.375162   32.618309
H   45.984489   74.148026   68.379852
H   44.042427   37.671406   38.454933
H   14.535660    6.126040   26.092051
H   33.443016   47.094967   91.662773
H    5.112472   50.700134   85.667389
H   36.835823   79.039864    0.059486
H   83.203255   15.505142   44.684006
H   61.887772   72.923424   31.866478
H   44.849586   40.673748   42.352089
H   81.697357   83.808052    6.712489
H   76.828842   32.715488    8.383647
H   64.936050   26.432703   91.443672
H   63.019768   15.291370   27.978502
H   72.202461   55.297501   99.938232
H   72.962578   25.926168   90.671051
H   34.209572   37.878876   79.726746
H   27.470646   16.270493   98.922951
H    7.778933   77.085922   95.981583
H   33.684418   91.344864   67.572372
H   19.808645   50.717106   45.986130
H   94.842384   15.470072   57.877617
H   24.888256   81.776016   54.900696
H   48.499065   79.514183   41.079323
H   99.106163   19.131245   17.282936
H   65.353409   50.459404   58.769424
H   35.008545   99.605652   15.892740
H   70.733177   20.113548   38.975025
H    6.921148   47.036171   92.870338
H   89.976250   95.186775   74.055931
H   14.862667    4.366116   18.523033
H   88.521080   97.372948   25.735058
H   67.579590   21.403227    2.626530
H   57.958771   46.018265   41.352139
H   88.346664   74.728073   11.195508
H   83.982086   14.158842   11.609566
H   39.974209   54.427879    6.638331
H   23.941441   98.619820   78.943657
H   69.088493   24.025990   17.478167
H    7.731740   84.214363    6.549310
H   56.703182   82.371353   91.230064
H   11.946175   32.869514    7.518827
H    3.086312   59.302181   92.918053
H   42.921581   54.140312   42.471878
H   15.652779   79.920364   19.543465
H   84.084282   70.987305   12.283503
H   81.077911   69.387329    4.559752
H   68.232155   98.859055   72.190689
H    4.116488    3.648299    5.070984
H   31.755013   45.811943   59.367455
H   97.075134   79.172173   95.978783
H   56.472759   95.683815   63.010933
H    1.604922   77.053101   23.357811
H   92.543472   85.746582   55.800495
H   99.117363   49.318588   13.154104
H   47.527920   30.875334   54.234314
H   23.079754   87.777420   97.801239
H   67.600922   86.196228   82.201050
H   82.436440   22.347801   45.636921
H    9.849623   40.396717   74.883102
H   96.873535    0.629667   70.018051
H   77.900055   42.838783   30.451576
H    1.578948   72.914139   83.927658
H   53.800076   20.666553   60.826210
H   77.676926   71.126366   75.207016
H   56.231110    0.488990   45.169865
H   44.255970   14.809643    1.262150
H   69.371689   40.752972   41.758793
H   25.348894   48.946930   27.553785
H   33.951004   94.690552   40.551125
H   28.832914   98.395943   80.940796
H   66.575829   28.707218   11.924770
H   85.276848   48.871605   93.204704
H   76.179283   16.670450   84.848587
H   75.151688   99.250549   80.327629
H   52.166641   48.381870   34.392811
H   31.289818   34.987648   91.914696
H   41.031982   20.510578   28.911110
H   56.886539   19.325451   28.368668
H   31.310884   89.186440   26.328850
H   91.880028   29.136459    7.995765
H   30.985168   23.856646   59.105232
H   19.510279   61.745811   26.177389
H   69.708733   29.544514   11.847312
H    3.291361   30.774124   94.477913
H   26.922352   80.969383   72.224060
H   63.634506   25.642567   96.367073
H   10.546772   93.098343   10.189945
H   91.609131   62.169067   31.150566
H   92.119499   52.434669   51.394112
H   21.972651    4.418222    9.306845
H    6.317516   73.278389   37.512897
H   63.885387   61.867168   84.013885
