100
TIME:    3.541, STEP:  3541
H   77.859039   97.293671   95.904129
H    2.770260   96.731537    1.365246
H   40.621323   28.657288   81.775444
H   82.070953   86.760368   46.069340
H   63.454636   56.584270   69.693665
H   73.113167   97.371864   29.422846
H   67.384956    0.441881   67.363747
H   41.570679   94.943954   83.071205
H   66.583397   45.840729   77.194298
H   78.074898   67.226875   46.352791
H   70.879837    8.722364   98.662773
H   20.689903    1.182882   40.876381
H   18.019730   47.472031   73.181816
H   79.751534   94.161507   26.711658
H   23.573063   53.730789   80.560310
H   59.148666    2.020172   39.107765
H   39.361061   16.181026   95.739548
H   76.810143   22.502007   76.783386
H    0.421026   26.902422   49.914837
H   97.120018   30.619276   57.420372
H   54.148758    3.698938   61.131500
H    1.859467   48.784714   17.729385
H   38.466576   65.823494   31.039116
H   90.044212   79.150421   44.088459
H    2.938324    5.339539   62.690895
H   30.421244   22.100008   57.272240
H   56.735226   95.281265   70.231422
H   33.762798   21.721603   83.818504
H   88.166107   70.359238   89.787849
H   36.770203    3.199773   64.887909
H   55.417362   39.583828   29.226295
H   89.338203   54.675346   71.455956
H   19.780397    9.406170   16.798201
H   27.717525   49.211189   22.574036
H   92.750793   91.247551   40.350037
H   80.434120   62.650471    8.463967
H   19.427319   74.856430   87.482353
H   17.636711   94.146446   72.319176
H   95.604767    4.266150    1.163421
H   29.671143   80.686981   16.632380
H   93.249969   77.683075   25.770124
H   13.376274   70.781723   69.160461
H   41.741543   84.734268   57.242863
H   53.242020   72.117310   26.954477
H   49.499653   92.182281   59.123837
H   32.403873   30.455952   97.546150
H   69.398727   17.409401   59.454987
H   56.428524   31.841169   87.674965
H   68.534470   39.183617    3.221068
H    0.142799   84.635338   36.001987
H   43.274464   27.783112   90.752563
H   77.218903   35.160698   41.602367
H   82.327721   42.540649   97.213173
H   94.693718   49.433517   88.071625
H   58.853683   68.909363   30.464491
H   97.996811    8.809668   72.082809
H   20.736315   87.372475   92.765923
H   62.385979   42.484116   22.347645
H   69.547020   88.384186   39.638699
H   25.349625   99.960037   62.896126
H   83.069435   13.899924   38.311337
H   73.237602   94.982956   35.135620
H   14.458364   65.651665   90.653465
H   86.193779   61.056664   31.002346
H   72.872231   78.030678   25.327276
H   83.816017   66.239235   55.555359
H    3.467053   70.782135   38.022442
H   35.764793   20.050917   35.482876
H   33.385254   95.352661   38.147526
H    2.127545   26.244219   94.276794
H    9.589054   54.470329   19.671604
H   81.995224   34.006363   15.876765
H   76.111511   43.153202   70.958733
H   52.262493   25.297523   92.760368
H   32.897755   33.686634   69.829750
H    9.367114   34.517326   57.664112
H   88.454842   19.635937   53.673725
H   98.342941   19.182814    9.995121
H   31.316565   43.117695   57.191582
H   25.868141   16.102818   15.860767
H   80.170670   65.914932   91.626465
H    7.009040   67.352982   90.680908
H   41.838001   66.363007   67.162659
H   93.765503   15.169868   40.000938
H   79.911743   27.392735    4.492239
H   69.798096   39.121201   87.680893
H    3.650119   45.893379   92.391769
H   12.955198   21.793137   58.917526
H   29.170242   97.015480   99.229988
H   53.267170   63.591431   50.798454
H   68.934906   64.633736    8.241250
H   40.292130   61.807938    0.998046
H   12.439343   33.764763   92.835411
H   89.478676   28.020081   65.568703
H   95.367455   32.548496   97.456200
H   86.393646   55.900826   84.551552
H   81.534607   70.891365   33.543739
H   19.864454   46.387177   99.377129
H   40.028252   52.114155   48.441612
H   59.154736   87.765846   56.624718
