100
TIME:    7.492, STEP:  7492
H   10.669098   34.968361   92.286880
H   93.566483   10.843516   50.500515
H    8.551577   12.908557   35.395786
H   82.734116   23.980488   29.500256
H   28.064211   73.274178   62.566254
H   11.835942   93.091454   20.703651
H   60.312870   67.234589   76.337311
H   31.029869   36.754925   20.302864
H   69.460213   65.968124   28.491764
H   70.126564   23.959017    1.059939
H    3.367435   67.699478   18.082487
H   69.894058   99.226074   59.640205
H   66.009743    8.505337   80.572014
H   84.122429   81.983437   27.384533
H   71.603828    0.810465   90.612335
H    0.285398   56.451294   11.139290
H   21.645149   77.507843   55.414669
H   61.280811   30.278137   39.815422
H   61.951687   92.650894   58.067997
H   90.670456   46.710842   26.422770
H   19.690811   10.364510   53.895626
H   80.645676   54.029724   81.265289
H   85.713203   33.690269   17.995157
H   22.942762   26.454317   50.653244
H   61.627266   92.006516   91.870033
H   12.281918    5.238609   85.852150
H   16.035013   31.042822   48.622677
H    0.389121    6.140922   14.417518
H   74.077080   28.824587    3.021924
H   88.270187    5.412445   78.981285
H   10.912017   93.878052   16.635811
H   38.806637   45.514111    5.692079
H   98.082771   20.331869   72.735481
H   94.656105   87.125679   56.124969
H   94.500343   92.420525   80.871414
H   23.904305   72.234314   95.872200
H   98.379654   30.163015   98.805756
H   54.332848   21.844189   51.130150
H   28.832264   18.178804   18.281837
H   57.530045   10.807029   27.489111
H   23.226213   13.252797   18.852751
H   68.828972   70.983032   62.438305
H   75.763397    8.430168   42.628208
H    0.955180   38.395409   13.263804
H    6.780682   36.295872   97.220284
H   81.416527    5.814343   13.598333
H    0.266076   32.279243   97.379417
H   56.644894   72.535156   32.140026
H   84.028816   11.963207   45.615761
H   83.035889   44.766468   59.692711
H   42.987156   46.339523   32.402527
H   69.239731   68.537582   82.233551
H   64.280739   65.449890   67.746376
H    3.197365   84.964951   62.417496
H   44.271042   15.167699   64.074005
H    2.927036    4.652866   37.581436
H   71.211121   73.367867   68.538979
H   68.185959   69.360390   20.578493
H   81.151665   55.331982   36.325081
H   64.622643    3.647274   50.520287
H   32.302227   30.159348   30.260765
H   33.012215   58.207596   56.366325
H   82.692818   96.042023   19.721527
H   57.502995   82.575165   23.730900
H   29.692406   62.471836   93.265953
H   41.101929   69.823845   89.169357
H   86.471008    7.381268   28.776583
H   62.842064   46.013237   24.363525
H   30.302277   11.458984   90.347168
H   82.183388   24.948572   85.953186
H   84.127159   85.646240   72.279915
H   56.318699    2.835500    5.207412
H   18.498766   47.726887   69.656799
H   65.276726   75.250000   58.004211
H   23.368116   39.346760   69.350189
H    2.770239   87.739891   91.813057
H   47.216511   77.349312   23.612810
H   83.968109   60.838017   28.194582
H   20.782454   31.512356    1.267053
H   32.109726    0.894205   75.478737
H   57.483223    6.790536   27.769501
H    3.490845   93.057388   60.222584
H   91.760460   32.410801   43.443741
H   65.585762   53.265987   79.138451
H   87.531693   80.251060   21.487284
H   78.863693   84.248291   62.050430
H   67.528526   58.623039   80.790779
H   76.520988    5.556234   17.897537
H   11.163411   77.029839   66.915901
H    3.944818    1.032925   92.038300
H   30.626240   77.977333   91.679123
H   32.631031   58.949265   76.277306
H   65.705139   52.317577   98.372444
H   71.338387   67.703819   31.972776
H   27.060654   78.642197   88.245148
H   12.730117   99.881775   80.477272
H   67.922630   97.630432    6.316731
H   23.816027   57.162212   28.480143
H   51.811394   69.154472   17.503384
H    4.569124   86.376877   76.012604
