100
TIME:    0.948, STEP:   948
H   53.212807   35.084816   98.278091
H   74.899879   56.145405   37.799740
H   96.052399   42.106579   12.208794
H   81.635727   93.591637   88.200188
H   86.679901   48.743904   40.000450
H   13.315941    0.181884   72.629814
H    3.286568   25.350866   64.587608
H   45.375366   70.615219   21.151474
H   30.324348   95.146957   40.413956
H   48.933205   29.995766   44.813728
H   12.074371    4.387446   48.432961
H   19.657116   71.209084   25.449045
H   82.959747    4.351973   30.905687
H    8.142412    2.154366   29.383305
H   92.032021   85.345428    5.202057
H   63.407227   28.817860   54.348129
H   47.848747   44.689743   59.668282
H   21.402481   48.599487   66.680954
H   60.026169   18.122316   13.307756
H   66.987892   85.656128   80.862511
H    8.020874   61.841904   31.514229
H   53.248280   45.351189   38.535198
H   73.086861   86.912193    5.225924
H   30.962082   48.051517   36.668106
H   95.678703   10.990971   43.557083
H   42.312153   99.363022    0.317503
H   80.332092    3.068940   18.778189
H   52.550896    0.688645   98.108414
H   31.784500   35.101627   12.360138
H   37.343182   67.376877   58.751766
H   53.393375    7.055162   34.394890
H   25.614325   26.320427   11.502937
H   37.133518   99.122581   83.200279
H   18.157372   86.844246   31.812723
H   57.207802   87.258522   82.455017
H   54.980011   58.955151   17.382399
H   70.723839   69.818214   83.164070
H   24.808701   41.603085   89.339424
H    8.100986   60.270988   51.266182
H   73.901802   23.434397   12.620359
H   70.455154   88.709938   64.679001
H   46.420341   54.405998   47.338703
H   19.406515   69.184814   69.947243
H   18.823099   28.658468   73.423836
H   74.422844   94.488419   37.231209
H   65.843956   81.025444   87.035881
H   46.090076   76.880722   35.723824
H   56.290043    5.143983   27.234770
H   92.742424   53.935059    6.657083
H   45.772381   45.178562   17.360939
H   43.472294   78.120110   63.412434
H   51.203575   75.772217   11.826714
H   28.544436   27.505554   47.812057
H   54.736935   91.736427   73.649368
H   65.290726   41.611683    8.450525
H   94.752396   11.535643   60.354645
H   56.349586   62.192848   46.150185
H   55.468445   87.360558   89.136551
H   65.042488   78.823608   38.704899
H   96.461243    0.653258   36.646202
H   19.501207   34.484810   40.481827
H   65.264771   19.121506   52.462135
H   38.535149   42.507393   68.521584
H    8.136290   46.951370    1.400000
H   69.951591   85.129082   83.846840
H   43.108101   95.145271    2.238952
H   11.508631   81.136749   12.831566
H   14.881110   71.754135   11.522483
H    4.149168   81.669098    0.774503
H   49.589714   95.824364   99.736908
H   91.928291   30.899603   50.777653
H   95.800552   20.063423   26.029333
H   45.180771   71.413216   37.440754
H    9.325301   89.388306   46.866142
H    7.879508   29.992590   73.262627
H   48.071667   68.331810   32.141628
H   53.027790   44.379997    7.808613
H   76.519089   88.733467   66.796097
H    6.991477   50.725437   28.258995
H   53.033859   57.325424   39.250061
H   29.433529   39.089153   36.647854
H   12.451920   50.418716    7.506203
H   77.778893   23.079798   20.192051
H   15.383064   93.283180   76.840736
H    6.169300   89.585754   55.854469
H   29.473125   43.876720    7.615255
H   30.469503   34.425606   68.747375
H   71.216095   29.394756   85.886909
H   75.356148   41.388603   20.444069
H   82.521072   70.275742   58.103344
H   62.818607   24.621454   53.481762
H   48.429356   66.804741   51.585167
H   46.109062   56.034607   92.254448
H   38.855812   70.737083   90.737450
H   40.202427   64.814575   37.869743
H   72.222488   58.295403   18.483742
H   87.354813   22.083998   82.668579
H   10.345885   24.309326   40.868164
H   63.551506   40.936749   65.640816
H   98.115433   54.354305    6.379758
