200
TIME:    0.251, STEP:   251
H    9.809166   62.438488   15.527670
H   28.062328   33.038754   90.343735
H   17.907133   69.619621   45.890007
H   18.213301   77.102333   44.212048
H   15.093353   84.008041   53.500347
H   89.260742   52.516438   65.223808
H    3.518600   55.296326   49.864277
H    3.135131   89.361389   24.681877
H   87.875198   87.341316   47.451073
H   10.473980   74.744804   95.638573
H   12.577090   94.829170   93.309280
H   30.823288   42.316448   13.266409
H   11.444156   87.372948   60.840843
H    3.883736   53.253345   42.795864
H   19.090782   72.029266   42.951527
H   28.979759   25.513138   54.085712
H   84.724884    8.233683   14.897982
H   36.300968   83.695839   43.324532
H   65.391411   29.303679   42.645763
H   90.091248   79.553612   37.044308
H   58.217087   77.307365   25.336514
H   89.784142   49.234825   70.150795
H   94.675812   62.461479   48.872269
H    8.841224   88.159470   91.551590
H    3.724578   13.146380   45.017841
H   18.651987   62.824417    6.593245
H   99.108757   59.017475   49.524139
H   94.762726   70.583206    0.760215
H   11.531892   56.195381   38.273952
H   92.552345   21.059021   98.245392
H   13.347131   51.908817   16.208261
H   31.726021   63.764145   93.873947
H   26.857513    9.222234   73.313515
H   96.062492   63.589920   38.482567
H   47.460560   89.346481   34.135418
H   32.701939   49.671146   79.602615
H   86.580185   74.191582   86.037514
H   32.370789   45.039856   14.672861
H   52.663139   46.006721   44.676144
H   89.977257   39.643253   63.266693
H   80.507584    4.709956    1.889395
H   13.886827   42.876225   39.504971
H   76.503799   87.529236   50.736736
H   37.256760   63.768169   19.141747
H   29.152836   76.630760   44.760872
H   40.904995   13.552224   42.807510
H   80.181442   25.673267   96.420204
H   89.848022   65.550438   47.252213
H   87.505775   28.334728   61.174263
H   61.723755   17.851145    5.247046
H   77.946564   70.356888   27.432793
H   20.717619   35.887310   63.778179
H   52.473392   94.107437    8.072135
H   22.242880   82.415833   81.866058
H   76.733292   76.140297   90.417603
H    5.164642   72.079071   79.008423
H    5.399091   16.787086   49.536594
H   67.528854   58.835110    5.104904
H   27.949051   74.689957    7.392533
H   42.848877   95.927406   66.790886
H   50.383892   15.161793   41.915119
H   90.134331   16.450941   49.150482
H   71.750359   25.434341   84.513809
H   24.392557   65.168030    3.913100
H   71.525200   76.243057   18.379410
H   38.308208   16.988483   33.061020
H   85.764259   22.929960   86.062386
H   97.279823   91.474937   87.489334
H   16.913757    6.001897   61.840576
H   45.173645   41.821709   50.982006
H   58.460339   76.782387   73.575577
H   31.831347   23.532696   44.687828
H   77.842911   25.853268   99.127419
H    8.223726    8.722909   60.892838
H   79.278976    1.049645   67.095497
H   53.591797   18.688248   62.805592
H   95.381088   30.359701   71.989983
H   26.147814    6.170242   47.591393
H   11.614189   30.183517   34.694828
H   68.110344   90.605598   93.739960
H   43.834965   29.916138    0.970344
H   27.120131   68.392441   87.517174
H   10.956797   13.786962   89.957870
H   24.315357   62.219292   94.210052
H   38.516506   99.440170   57.470463
H   24.977121   85.389450   27.553837
H   36.348225    2.807031    1.796541
H   75.240013   18.134945   11.857085
H   66.024376   72.078026   77.206360
H   23.389034   86.540207   54.744488
H   40.781704   34.987755   80.705559
H   83.978806   88.631973   98.607864
H   47.782242   16.738039   95.416542
H   59.534607   94.038452   69.406708
H   25.403631   56.777405   68.397919
H   68.816536   27.955235   28.544483
H   79.454811   13.898706   98.802971
H    6.592297   28.609640   48.697720
H   36.768654   69.667839   52.920231
H   67.395691   98.106140   27.253092
H   10.357021   80.730530   69.457771
H   90.981346   76.822990   65.803925
H   23.407415   36.767960   30.656569
H   22.404472   67.959793   90.599190
H   25.324158   27.328175   25.444168
H   87.858582   26.234325   43.375774
H   66.179382   30.233366   56.208038
H   64.686409   34.696720   18.316261
H   73.076111   39.950802   99.664497
H    4.720092   27.907019    5.591101
H   47.339268   95.971191    0.803590
H   86.435646   63.621952   90.636459
H   56.902988   80.402306   93.696106
H   63.186913   19.160200   74.670319
H   63.483177   82.426620   26.386969
H   13.589577    5.475508   79.430626
H   32.122677    8.597601   84.308334
H   40.715305   27.537910   33.758629
H   19.280090   58.126598   82.996002
H   71.072922   46.894405   49.753101
H   40.669380   21.832531   87.159378
H   17.814468   27.219448   48.511730
H   32.501595   21.358639   24.355465
H    3.915244   66.922958   17.383505
H   76.587227    8.679744   92.449326
H   48.125347   62.653419   25.318996
H   95.113213   49.241287   70.629944
H   75.188065   87.656242   35.095478
H   92.603088   52.085495   84.639587
H   68.278358   24.097208   66.689011
H   49.052994   84.792938    3.831716
H   81.277786   86.160477    9.586392
H   92.401833   83.129913   97.456978
H    0.381194   13.284991   49.842503
H    4.969492    1.171226   55.911415
H   62.065102    1.612733   83.519547
H   68.910927   86.592552   55.886261
H   91.312172   63.877495   83.024567
H   46.600754   44.487465   71.547485
H   43.453903    8.562357   95.151840
H   51.162235   62.745182   15.265265
H   56.731903   41.345051   46.503319
H   54.651890   56.963455   99.013222
H   57.209038   26.129499   78.306709
H   40.818989   69.402260   49.428242
H   46.343174   62.165272   29.319340
H   44.991417   96.729622   47.203133
H   42.352081   73.009232   68.761864
H   65.479340   64.333054   97.835106
H    9.812623   88.794891   89.585289
H   75.832497   61.496761   51.261154
H   34.250416    6.805338   47.807613
H   76.686760   31.427280    3.078426
H   10.200675    1.395231   75.680695
H   14.048729   54.169540   60.952236
H   63.828644   43.556179   54.399380
H   59.426403   61.213448   80.886032
H   46.202457   36.483406    9.981840
H   11.878358    1.692884    2.197002
H   63.556351   56.494995   78.663208
H   54.063999   83.962494   83.123413
H   43.087643   22.999296   35.448681
H   65.692848   34.090366   37.227478
H   11.678445   20.502808   70.728149
H   58.848862   22.461611    9.932628
H   12.103215   64.089287   62.241692
H   74.710419   97.389046   52.338310
H   23.641823   31.433041   48.467579
H   94.222427   28.134438   36.830959
H   26.974941   10.376703   90.279480
H   79.154846    5.764635   35.975151
H   45.782936   65.038574   57.491894
H   37.885479   76.981583   90.114517
H   71.089043   74.280594   74.498764
H   70.926605   94.953796   98.714203
H    1.246994   47.720268   23.297298
H   35.304741   53.264774   87.368118
H    1.827492    9.211349   65.020859
H   75.320259   21.123850   69.006187
H   85.777267   54.573097   86.540176
H   81.216988   85.583603   41.463543
H   19.449539   30.119473   70.017738
H   65.128754   90.154343    6.287743
H   51.720436   25.240711   77.594963
H   85.665215   87.857277   78.351517
H   99.490715   36.316589   84.009254
H   31.735031    4.336143   99.508865
H   89.892586   67.690498   25.911440
H    6.299826   61.222458   66.669128
H   49.813602   58.213474   65.841995
H   48.345757   30.660412   79.222908
H   47.562740   85.228134   24.484278
H    4.344809   17.785719   58.058193
H   34.911381   63.970127   33.534966
H   84.517120   53.764008   21.780302
H   75.354996   10.410438   29.415667
H    9.534398   85.859352    3.838055
H   28.589806   97.187561   46.656490
H   11.766623   11.642673   77.525108
H    7.893008   34.620079   97.595970
