100
TIME:    8.471, STEP:  8471
H   44.462639   45.189934   91.390579
H   66.528061   63.896900   12.228259
H   25.379633   83.341888   23.903355
H   82.898438   83.644707   75.839180
H   19.291662   51.745258   36.020798
H   96.654175   92.030830   17.657169
H    9.005672   33.340538   52.896397
H   54.082397   21.451395   30.414635
H   45.394524   71.840530   66.869232
H   43.386909   38.016010   39.394630
H   12.303238    7.091715   23.780252
H   32.526939   48.297970   89.954399
H    3.582050   49.247559   83.282257
H   35.647469   78.965889    1.885958
H   83.494759   13.361343   43.529892
H   60.922806   70.824303   29.874199
H   42.919655   42.261089   44.536903
H   82.210419   82.640205    5.880572
H   77.202744   33.722385    9.647990
H   64.289322   25.923029   93.077705
H   61.595573   12.902027   27.327105
H   74.503365   55.329361   97.894409
H   72.642143   25.731070   89.984406
H   31.979532   38.165985   77.944397
H   26.612339   14.367111   99.100197
H    7.665728   76.378403   93.723160
H   31.614794   90.347305   68.048447
H   17.783590   51.837345   46.779526
H   95.364235   17.647482   56.743095
H   25.808453   81.182022   56.808655
H   49.443707   81.666405   39.180519
H    0.621533   18.468220   15.061134
H   67.043839   48.703423   60.931534
H   36.022583   97.406189   14.881723
H   70.135887   18.296410   40.435291
H    9.007360   48.916115   92.794899
H   92.278252   94.307869   75.947044
H   13.870739    3.926889   20.216576
H   87.508141   96.849998   23.409344
H   65.318970   19.156431    4.514805
H   56.318512   46.841690   41.917568
H   86.324081   74.822189   12.420758
H   84.188629   14.302809   13.343071
H   38.441799   54.830894    8.984828
H   21.859623   97.673164   80.997368
H   68.778679   24.483662   17.575670
H    7.919400   85.519539    6.779771
H   56.704647   82.618546   92.715050
H   12.647652   30.881905    6.561415
H    3.590080   59.667477   91.240074
H   42.919933   51.823296   42.724930
H   16.819239   77.693436   17.967934
H   84.581963   71.126465   10.889612
H   80.522003   68.995850    5.618742
H   66.321266    0.962261   72.394669
H    4.146379    3.623054    4.253967
H   33.276436   45.119438   61.650047
H   95.288025   76.905693   95.360619
H   58.365704   96.697853   61.168343
H    0.021197   78.897705   22.675194
H   94.057388   84.630371   53.929340
H   98.265556   49.095200   12.068151
H   49.157375   29.237547   52.588562
H   24.727795   87.908157   97.149750
H   68.553436   84.279480   84.436035
H   80.962074   21.154686   47.055988
H    7.923995   41.226368   76.041794
H   95.215698    2.002305   71.165390
H   79.096100   41.114296   28.946266
H    2.066386   74.119705   83.876755
H   53.037807   19.033527   60.538368
H   75.700485   70.329491   76.966293
H   54.666290   99.301781   44.554447
H   43.727711   13.290691   99.836189
H   70.527817   40.788311   43.578495
H   25.916338   50.485199   25.938887
H   36.130692   92.613403   40.976845
H   29.960386   96.826729   82.266479
H   67.726830   28.636723   12.192608
H   84.099846   47.564232   91.137077
H   76.649132   16.918741   86.283035
H   76.952713   99.406189   78.319695
H   53.684769   48.783237   36.678516
H   32.940918   37.041359   89.722557
H   39.863403   19.009296   26.584663
H   56.334110   20.207012   30.035294
H   32.913792   87.441444   27.473259
H   92.266014   27.215958    7.746902
H   31.483307   22.520433   58.908943
H   17.388361   60.758324   27.035330
H   70.690910   30.840351   12.354148
H    5.067118   32.579117   94.935310
H   28.460804   81.689354   74.080017
H   65.954056   27.098621   97.985359
H   10.131763   90.948685   10.741413
H   93.591431   61.221313   29.910942
H   90.214470   53.811989   50.013863
H   21.926325    5.605730    8.825003
H    5.174228   73.382027   35.502583
H   65.376221   61.251385   81.701996
