100
TIME:    1.276, STEP:  1276
H   31.031221    5.005668   97.977798
H   65.775978   73.928856   58.489925
H    1.688434   65.704597    8.357536
H   81.690781   80.078453   70.222649
H   83.742035   75.034554   31.106773
H    8.229729   99.825706    5.111792
H   86.095100   47.499973   90.237633
H   19.595215   98.992905   91.035667
H   22.261482   63.611191   19.767054
H   39.969460   34.704826   57.658760
H   81.564621   17.584858   16.839037
H    7.137402   87.650124    2.102452
H   62.094620   84.507500   98.305321
H   91.901878    1.143133   54.345158
H   96.020912   56.047527   89.436081
H   50.219360    0.127390   27.121567
H   21.478519   66.380905   89.532417
H   28.411819   32.648926   55.309860
H   65.134209   31.883242   30.587114
H   58.138550   78.716660    3.208664
H   88.556992   29.187546   22.611794
H   84.698967   45.784111   10.605571
H   68.707588   84.244591   95.841415
H    0.487274   51.985355   12.306934
H   83.947258   84.976631   45.976944
H   40.808186   89.588486   69.572525
H   52.048439   89.435257   25.287039
H   24.876396   15.999064    8.949843
H   38.916458   64.860657   96.855858
H   49.920452   59.258957   84.827202
H   66.295967   36.469910    8.440704
H   46.324528   17.259087   81.138374
H   60.238560   75.124168   12.749112
H   32.015892   56.784920   17.995493
H   49.054848   62.464333    2.429214
H   83.497833   84.720291   16.253798
H    2.184427   57.806496    9.009086
H   11.252756   35.599728   12.485893
H   93.355698   53.269157   19.828011
H   43.008362   92.728157   38.427097
H   48.040070   99.965919   72.406540
H   16.941582   69.126991   62.748737
H   22.231771   71.151733   93.640358
H   97.878670   34.155571    5.494911
H   45.971672   81.545792   65.300980
H   61.625332   87.254524   88.352882
H   49.553455   94.572983   38.526558
H   56.307560    8.521029   47.529568
H    2.331230   26.771057   93.573410
H   52.651592   50.170933   94.420372
H   43.447269   46.454216   66.870804
H   67.144127   45.335987   90.294418
H   35.348572   29.407410   28.761185
H   47.142025   86.386208   88.123489
H   39.177872   70.366684   11.233866
H   95.162796   11.190931   49.188751
H   77.143951   52.728615   77.345619
H   31.044567   56.385338   80.688309
H   90.912727   92.682129   13.523750
H   74.815125   25.865355   27.317101
H   40.192150   19.232430   14.909351
H   53.623413   16.068527   37.620155
H   60.784355   20.139908   46.019630
H   30.659513   48.735611   92.495918
H   82.969292   58.933041   14.392228
H   22.958443   78.839363   21.632429
H   85.192429   92.477814   28.668266
H   92.223595   90.512436   27.202780
H   20.497238   58.101105   80.204353
H   56.233696   12.321712   99.046234
H   81.513130    8.581579   46.843815
H   68.754166    9.177410   50.044952
H   23.794426   55.188747   29.030048
H    2.106342   68.633057   27.372124
H   23.693367   30.459295   98.126884
H   55.826733   89.352318   10.071523
H   82.807762   15.951555   13.612400
H   91.929123   67.287544   84.908768
H   22.714296   49.764500   31.916313
H   36.948166   39.460495   10.992604
H   35.852291   42.482464   56.251980
H   37.062435   52.560806   80.078934
H   98.534142   28.553888   51.432529
H   37.947559   21.350565   46.881508
H   90.198395   69.070740   24.058449
H   21.923260   55.925976   30.392708
H   52.375877   10.577339   84.387634
H   76.496246    3.135080   82.478584
H   82.162788   23.126394   17.760201
H   53.522781   56.778915   69.829781
H   76.241707   42.331753   60.408520
H   72.698036   91.473808   57.833763
H   67.154594   65.862167   17.629679
H   70.558723   90.631493   12.853196
H   34.531895   35.433479   45.407097
H   99.313919   45.342766    1.541702
H   61.319412   40.907360   63.805176
H   11.550185   27.102051   35.620544
H   47.926262   42.350628   38.166363
H   18.485336   45.928585   74.788765
