100
TIME:    7.250, STEP:  7250
H   27.034048   57.161049   92.508438
H    0.250101   97.729713   35.240734
H    4.391632   95.498482   38.237263
H   82.693497   33.951324   42.765842
H   30.232706   53.876812   69.128052
H   15.589036   93.353630   96.737686
H   72.996506   50.893230   57.412594
H   50.050591   15.819571   42.523247
H   75.409035   89.235367   43.725483
H   76.736366   20.484255   91.584572
H   25.877686   57.962025   41.392746
H   79.129318   87.095795   76.866310
H   81.441231   23.152378    4.621885
H   96.105003   82.729347    8.967556
H   68.664497   22.427086    2.251179
H   10.016254   77.617432   31.227991
H   41.105293   61.500591   33.384457
H   56.105595   42.053925   48.203224
H   58.183361   82.499863   45.319202
H   97.191635   51.849133    9.946268
H   34.051437   34.457054   60.462963
H   57.444901   53.708466    1.873821
H   88.944252   35.658440   24.919756
H   45.428642   23.559298   68.626633
H   70.282784   11.198181   90.082802
H   13.422939   12.371841    8.625089
H   36.903187   41.103294   43.820415
H   20.808071   94.845207    6.417903
H   68.815086    6.868958   14.460859
H   78.990616   11.402348   59.742699
H    1.387375   72.176483   35.782082
H   23.526546   52.199612   28.095222
H   81.037605   38.037407   50.934212
H   84.431221    9.303470   66.320312
H    0.523045   10.743263   66.148911
H    2.868100   53.280060   96.632881
H   75.167801   39.025513   79.737030
H   64.334389   26.273495   34.053596
H   39.047916   23.450953   41.733170
H   80.324104   33.462383    8.449002
H   39.764999    4.949841   13.151566
H   89.223351   70.034027   50.084621
H   73.680756    6.978504   25.149158
H   16.407345   34.333519   89.602165
H   27.772343   45.843159   76.512032
H   84.540489    1.199312   12.615171
H   98.375290   19.117817   95.056755
H   56.630123   70.042633   17.166424
H   76.953743   32.004940   55.270134
H   77.954834   41.083073   76.612801
H   43.003773   69.702774   29.851700
H   57.478710   90.992447   98.119232
H   59.260715   64.046692   81.800514
H    8.800926   88.912369   51.738419
H   63.539169   93.959953   62.015430
H    2.625625    4.907427   45.819687
H   55.869236   80.350624   45.522835
H   86.205978   92.214058   26.812571
H   62.067986   45.105251   54.902687
H   80.593254   85.047180   57.403343
H   17.036001   41.412781   49.128242
H   41.601265   60.460098   67.316254
H   66.264320   12.555810   36.316193
H   40.884327   81.256897   30.301929
H   20.086960   81.799194   70.729851
H   55.968445   81.854424   74.860428
H    5.887074   99.014801   17.092188
H   79.558586   32.173271   12.794524
H   18.240311   28.847565    5.524394
H   77.268501   12.794168   86.466461
H   91.811516    2.111716   75.182320
H   76.247093   10.871118   87.468391
H   34.278152   59.696537   75.860413
H   70.605186   90.567017   72.383301
H   11.711415   38.990421   51.001530
H   97.049629   72.230858    8.096944
H   25.237713   98.293892   19.321054
H   72.598511   76.661293   14.829160
H    9.178102   32.223186   98.567070
H   43.977829   14.077464   96.327309
H   52.745583    4.286935   13.305394
H   85.330727   91.488022   80.468910
H   76.454521   28.363684   20.396210
H   48.937374   32.557735    1.242424
H   99.314865   95.390831   44.946129
H   84.432175   75.360138   45.245285
H   51.365894   76.218407   69.251320
H   72.628960   24.921293   20.406677
H    6.140601   90.504234   68.895149
H   25.341082   10.990093   83.386475
H   20.722614   64.909126   86.568527
H   14.725481   40.748306   71.665215
H   50.192417   45.056026   79.658211
H   47.950554   53.021935   15.655126
H   31.245323    0.317942   82.684052
H   92.741837    9.437684   92.976814
H   87.131676   83.742462   20.234844
H   24.283144   45.188869   33.338463
H   63.339775   68.109459   37.774059
H   89.536888   92.587875   99.324158
