100
TIME:    4.113, STEP:  4113
H   39.176422   44.838226   95.380447
H   86.884865   27.740946   37.443504
H   50.453445   69.809761   75.063591
H   82.166962   63.194695   14.715060
H   58.331284    2.432590   54.183960
H   64.245491   96.752174   86.070305
H   37.408054   39.067432   12.094964
H   96.612602   44.428242   30.551884
H   52.522545   90.845123   41.188419
H   62.443001   75.439949   68.752350
H   17.673782   31.737827   43.564358
H   98.857002   29.853891    0.161756
H   81.608139   12.868748   16.333817
H   51.429085   92.398445   70.242065
H   30.531483    2.637944   53.065289
H   36.150314   51.991081   91.625916
H   93.364052   54.012661   47.810966
H   89.029381   94.685310   56.951756
H    9.329716   50.900131   80.050674
H   81.706322   18.472044   96.364830
H   20.205460   46.755695   45.608704
H   56.697662   49.544052   69.018341
H   30.829552   61.171455   14.671971
H   36.899254   86.010651    1.605089
H   82.480011   59.979073   66.915260
H   27.796946    5.062917    3.651157
H    7.409868   71.506119   81.577858
H   85.498779   48.420639    2.723881
H    0.603587   22.255470   62.748421
H   58.703735   89.042686   10.360512
H   77.928612   90.876366   83.971474
H   25.454390   38.873253   18.503014
H   60.072674   67.555672   68.328476
H   51.885818   96.790924   98.477852
H   78.532837   48.008904   75.180634
H   30.173285    7.576952    6.497898
H   74.288651   53.909164   32.553516
H   93.995018   83.681541   12.685171
H   71.463043   91.803276   45.731758
H   75.794258   27.137726   61.637707
H   54.157135   97.312408   39.246197
H   61.968124   96.450851   96.034058
H   46.668514   88.164383   98.560631
H   16.716139   81.700684   82.881836
H   99.883766   69.611603    8.070975
H   25.024326   41.365986   99.867805
H   73.867477   48.517113   64.948524
H   56.459072   37.732529   23.067024
H   85.257370   91.811432   80.405579
H   12.139468   93.337181   95.996559
H   43.230824   72.559807   96.783630
H    5.017279   82.083908    4.050087
H   94.189110   45.857300   63.994297
H   81.444572   40.098892   13.311942
H   13.310902   19.041513   35.329678
H   98.712509    8.207434   52.610580
H   56.996906   70.867775   47.168022
H   19.793205   88.465309    7.613174
H   14.660788   12.552830   95.725639
H   87.603378   43.927464   46.627083
H   19.151781   87.298607   93.714485
H   52.936211   89.658859    9.252940
H   53.292736   26.619625   51.429710
H   25.471403   64.168442   15.470821
H   95.573830   32.345158   78.594704
H   48.676979   37.803322   89.376465
H   57.574936   90.559845   65.637924
H   96.252571   52.764359   62.827785
H   61.895355   54.252380    2.271374
H   13.716139   55.015724   93.072327
H   91.425453   15.551146   12.809193
H   34.831665   15.022847   57.757366
H   38.816650   14.861301   56.293350
H   39.667950   89.100746   58.773430
H   60.473957   34.502705   13.191157
H   22.890657   71.178551   19.177147
H   40.388718   70.059860   63.789509
H   25.216549   81.782005   41.586006
H   58.744392   41.437550   63.576134
H   97.815796   84.951332   66.582603
H   91.360001   71.832535   25.812983
H   49.928886   71.088577   42.851318
H   78.027077   75.911469   21.642925
H   33.118279   64.117378   87.758041
H   52.060608   91.613670   49.043152
H   56.633785   60.133926   27.402557
H   41.852699    4.304329   19.667372
H   22.161085   75.997581   52.969376
H   41.040878   65.166908   94.551765
H    2.693600   40.056305   71.245407
H   92.343475   95.522224   20.320841
H   82.616776    4.820269   11.897974
H   49.104729   50.928429   37.069134
H   44.765278   62.718102    4.137565
H   85.478600   81.312279   10.599725
H   33.638550   33.312691   55.007179
H   36.131409    3.717354    0.646233
H   21.963545   51.257416   90.221428
H   12.779350   54.579823    0.529110
H   94.685936   73.085304    1.521239
