100
TIME:    4.587, STEP:  4587
H    7.122638    1.370140   94.946487
H   73.793739   53.427757   67.332092
H   58.601044    3.911596   69.501671
H   82.246521   43.666496   88.733894
H   54.085709   40.425781   41.331512
H   56.893604   96.238655   33.011921
H   12.566174   71.074799   49.162380
H   59.357140   85.435730   87.030724
H   40.870720   45.272095   11.351168
H   49.489296   82.245888   87.311371
H   73.583466   50.810368   97.906738
H   80.768105   53.613197   66.421379
H   51.361130   84.204887   69.234619
H   27.959396   90.937447    6.311976
H   36.296379   60.298004   30.278912
H   17.090824   10.533319   52.280212
H   55.247902   85.365112   90.961052
H   99.158287   71.628700   40.517040
H   16.712460   70.785110    5.024401
H   68.933434    8.405981   28.636881
H   92.077644   99.566254   32.745407
H    2.140503   50.173294   28.652832
H   24.500969   57.316444    1.109818
H   92.859467   91.695526   66.403564
H   65.526642   22.387291   70.415871
H   25.636187   91.052078   59.076809
H   66.537727   51.802097   90.980324
H   45.503811   70.545364   18.392687
H   10.910968   65.260490   40.341621
H   76.879425   77.311302   48.041664
H   96.581657   33.380932   46.470100
H   55.383160   25.778511   74.622490
H   93.459084   32.875038   11.030141
H   71.913071   53.351532   78.508461
H   66.750824   12.178179    4.045707
H   71.377777   44.702427    5.006613
H   19.752329   36.550766   69.903000
H   74.401726   75.009575   46.132725
H   51.455219   81.475029   99.798294
H   31.149637   82.763893   98.929565
H   21.762596   13.575841   50.413433
H   19.367596   17.724566   18.302378
H   50.751354   91.006821   32.797981
H   86.448334   89.642151   29.227625
H   58.766521   50.910461   48.632832
H   18.909107   50.406818    1.794504
H   77.570602   74.294334   69.497871
H   56.484386   42.614578   52.395485
H   99.115158   52.553577   61.498909
H   22.080769    0.548422   62.842148
H   43.194660   26.798523    1.781084
H   28.051512   38.099934   72.934723
H    4.019500   48.605713   36.463154
H   70.465385   32.363556   34.227196
H   75.571075   60.582333   39.361889
H   99.305588    7.708644   36.474503
H   87.047791   57.190804   92.249229
H   84.498184   43.702339   95.403793
H   52.042824   32.581680   59.337631
H   56.322987   80.360397   33.145393
H   49.052399   65.253441   56.756271
H   36.113029   85.246933   87.806778
H   85.472069   94.274094   18.926109
H   58.021652   66.750504    2.600292
H   14.387555   94.487732   22.736593
H   19.558407   14.239349   17.402563
H   19.544985    6.948102   88.522079
H   63.510292   79.872391   85.487724
H   85.517563   20.193756   72.544891
H   23.319311   78.855957   92.074219
H   76.374275   83.300247    7.122579
H   95.748383   99.291153   92.460350
H    7.910060   91.415291   44.138855
H   29.231213   59.106289   30.609428
H   83.328621   35.178959   49.123989
H   34.097672    1.555862   87.282547
H   83.425064   28.975365   72.172173
H   47.485928   50.788486   67.764122
H   81.475822   40.045261   68.863503
H   74.570007   59.137264   25.746971
H    0.632487   76.736282   54.142941
H   85.493340   74.184158    3.214999
H    8.011599   83.830139   66.787491
H   65.726944    4.678277   44.464935
H   28.980932   61.966721    3.094275
H   45.723309   77.543755   60.318420
H   73.510078   69.840652   42.269455
H   29.789740   38.047783   48.040314
H   50.877304   38.774910   90.675056
H   60.787090   20.553421   88.191544
H   11.741660   21.117031   30.330851
H   17.689466   40.466179   20.929907
H   79.489159   65.151756   73.724289
H   90.578506   91.468109   36.096622
H   77.283989   38.854385   21.490761
H   72.788971   14.596165   30.524605
H   98.508232   30.919003   73.386292
H   23.703001   55.293243   82.634361
H   90.199127   56.623051   60.828667
H   24.127527   60.920879   55.860683
