100
TIME:    1.264, STEP:  1264
H   31.842699    6.106120   97.988785
H   66.109779   73.278282   57.732967
H    1.482191   64.841255    8.498436
H   81.688766   80.572838   70.880363
H   83.849518   74.072701   31.432152
H    8.415810   99.838707    3.923368
H   86.724068   46.689640   89.299217
H   20.538391   97.954697   92.137413
H   22.556465   64.764938   20.522409
H   40.297401   34.532524   57.188820
H   82.680832   17.102009   17.994936
H    7.595440   87.048622    2.956599
H   62.857895   85.233513   99.498070
H   92.496056    1.180129   53.431919
H   95.874977   57.119335   90.012863
H   50.701843    1.177037   28.117661
H   22.443256   65.587326   88.439827
H   28.155380   33.232483   55.725876
H   64.947258   31.379793   29.954943
H   58.461823   78.971542    2.391659
H   89.269089   30.382217   22.937492
H   83.548332   45.768272   11.627368
H   68.867805   84.342186   96.184738
H    1.602214   51.841434   13.198177
H   84.376457   85.928413   45.888412
H   40.863209   89.946091   70.697342
H   53.083260   89.934036   25.048910
H   25.888878   15.438922    8.553191
H   38.655533   63.771915   97.423119
H   49.460308   59.555954   83.873222
H   65.823921   35.393799    9.390244
H   45.566837   17.590599   82.249275
H   59.393253   76.002159   11.668057
H   31.508873   57.884651   18.501001
H   49.353127   63.371437    1.698530
H   82.454498   83.777664   16.295088
H    1.033484   58.245949    8.063552
H   11.748720   35.819363   11.639099
H   93.895126   53.525322   20.978188
H   44.138580   93.851509   37.482914
H   48.860107   99.554115   72.123825
H   18.020073   68.588478   62.184956
H   22.128408   71.079773   92.773537
H   98.644966   33.954430    4.321617
H   47.012535   82.019302   64.274124
H   61.780148   87.025642   88.304176
H   49.426746   93.925705   38.424019
H   56.306919    8.397478   46.787075
H    1.980486   27.764862   94.052048
H   52.399914   49.988285   95.259727
H   43.448185   47.612724   66.744278
H   66.560936   46.449543   91.082138
H   35.099640   29.337830   29.458130
H   47.419888   86.581947   87.593948
H   40.133224   69.314743   11.132036
H   95.147781   11.203543   49.597260
H   76.383148   53.074867   76.204323
H   31.938168   57.518578   80.997391
H   89.966255   92.175110   14.445000
H   75.607056   24.942961   27.658409
H   39.435192   19.790443   15.844952
H   54.049316   16.180222   38.163155
H   59.970360   20.958252   46.842873
H   29.835493   48.670334   92.821663
H   82.493034   59.891506   13.274690
H   23.695625   79.435921   20.922895
H   86.155197   92.062897   28.088875
H   93.052513   89.826157   26.629110
H   19.899124   58.963348   80.956917
H   55.990623   11.718128   99.071503
H   81.894173    9.398092   46.987736
H   69.743668    9.575687   49.166321
H   24.576881   55.782284   29.337757
H    2.370455   69.392395   28.085320
H   23.114799   30.442221   97.217216
H   55.543011   88.583275   10.878949
H   81.718285   16.991640   13.400066
H   91.365341   68.072151   84.246109
H   22.139071   49.799656   31.782509
H   37.536667   40.114090   12.026395
H   35.617458   42.358318   55.534756
H   36.162014   52.482437   81.082352
H   97.774803   28.353617   50.289585
H   37.122028   20.323709   47.977577
H   90.782684   69.821289   25.221718
H   22.199474   55.485149   29.559395
H   51.574425   11.449837   83.815430
H   76.303070    4.095812   82.603279
H   81.913765   23.794500   17.858391
H   54.583694   57.272659   69.400764
H   75.750618   41.683834   60.155102
H   71.810158   90.571281   57.605156
H   66.384636   65.502548   16.701288
H   69.398933   89.903648   12.044099
H   34.739353   36.508400   45.131340
H   98.322769   45.816643    2.161531
H   62.271927   40.218700   64.495300
H   11.506125   26.999878   35.812531
H   48.497917   42.298901   39.171520
H   17.740097   46.236843   75.944527
