100
TIME:    4.249, STEP:  4249
H   29.979271   32.366302   95.255936
H   83.128761   35.111000   46.019249
H   52.791153   79.594307   73.467766
H   82.189789   57.591667    7.260193
H   57.113144   13.333591   50.496338
H   62.136173   96.604836   99.538322
H   30.280670   48.251209   22.730341
H   85.923271   56.193562   18.064396
H   49.179405   77.769318   32.627201
H   58.726326   77.392708   74.077301
H    5.023392   37.210117   30.464626
H   93.666939   36.670906   90.480980
H   72.929672    4.644230    2.820095
H   44.695076   91.979256   80.591064
H   32.185875   90.489838   46.527386
H   30.682049   40.096062   80.336853
H   82.427773   63.007595   60.191582
H   91.934654   88.071663   52.235874
H   11.447971   56.605881   87.216324
H   78.041527   15.583891    5.624280
H   12.135025   33.216084   41.917969
H   69.736115   49.724594   57.436676
H   29.013756   60.065376   10.780721
H   24.263390   87.641754   91.504974
H   77.615753   49.193245   67.919655
H   27.176981    1.042348   90.861900
H   95.682594   65.853287   84.275612
H   74.022949   54.768661    7.219532
H    3.560937   34.594173   56.319466
H   63.918701   85.676720   21.171761
H   83.280540    3.072098   73.211586
H   34.041546   35.116112    5.912826
H   69.652199   57.605110   80.580429
H   57.632034   84.327301   92.748238
H   75.152344   37.728386   83.462738
H   41.995670   18.229130    6.070019
H   87.333328   48.928696   43.269825
H   88.373314   81.193382   22.282001
H   65.723053   88.839897   32.552193
H   62.984161   14.405850   72.337646
H   44.862335    1.979128   42.450298
H   49.745224    2.554374    2.423460
H   47.839962   88.979935    8.384048
H    8.031965   83.979248   96.179688
H   88.086281   64.245148   19.709188
H   23.269749   43.959980    0.420458
H   74.929977   55.913109   66.253822
H   56.466335   39.133286   31.481941
H   89.233444   80.547272   74.981018
H   14.991824   95.406151   86.483864
H   43.220448   59.430046   98.217590
H   11.626257   69.464645   95.122162
H   97.009300   46.645874   56.095066
H   78.294426   37.879471   19.312889
H    2.482726   30.960398   36.486599
H   98.882675    8.064245   47.980820
H   65.618500   66.943581   60.102715
H    9.666415   75.621925    4.109985
H   25.386435   18.299408   85.285332
H   78.628159   54.381260   42.758919
H   27.731157   80.973412   83.110237
H   48.109306   88.392990    3.099114
H   62.526318   17.338833   42.103783
H   34.810455   64.909286   11.778011
H    0.971522   21.483051   91.259621
H   40.322243   31.042336   97.417847
H   46.663559   95.262238   72.203842
H   86.858162   60.542191   69.329369
H   68.673264   44.480286   93.742096
H   16.471479   61.856606   92.785950
H   87.106972    6.297590   11.177570
H   23.617958   10.509038   67.714806
H   29.949221    8.134556   52.805984
H   36.673443   80.494911   50.692619
H   67.031013   34.696735   23.501245
H   26.106173   79.894371   10.026224
H   52.737167   58.272243   66.194664
H   31.606075   72.889793   49.097176
H   65.265892   41.038074   65.093391
H   91.146118   77.544960   54.866051
H   94.020401   73.239517   33.941128
H   60.133659   71.976761   31.479223
H   86.630836   78.181732   34.596294
H   42.474297   75.755074   75.335922
H   45.438660   83.107445   35.859436
H   53.503353   65.129723   36.846771
H   50.935829   94.416000   26.152357
H   24.349897   65.109032   51.555130
H   43.863144   57.594521   93.439461
H   90.669754   34.460541   76.107590
H   97.909149    2.866113   23.192911
H   92.679398   15.047609   14.489515
H   57.822624   55.009300   47.586224
H   57.910603   70.967163   13.307280
H   83.127403   69.130882   13.724710
H   44.871582   27.942478   47.982643
H   25.336563   11.521905   92.824799
H   22.462629   52.415375   88.044548
H    6.300625   55.166065   89.138313
H    3.133723   69.594826   88.420441
