100
TIME:    1.968, STEP:  1968
H   84.234772   41.545639   97.344254
H   46.526772   11.446218    2.141113
H   13.582983   15.489871    0.233154
H   81.806931   51.568932   32.290012
H   77.543854   30.501392   12.344481
H   97.499275   99.076012   73.643944
H   49.826717   94.225777   44.353020
H   65.205376   58.857998   27.498634
H    5.250801   97.078110   76.209160
H   21.059671   44.640923   84.754601
H   17.196457   45.429157   50.181332
H   80.727753   22.336107   52.844429
H   18.078251   42.640739   29.526012
H   57.637657   99.009926    7.004948
H    4.437687   94.237823   56.173729
H   22.396107   39.600716   69.680435
H   65.843201   12.143990   52.535355
H   43.199814   98.996620   31.319550
H   75.915031   60.915436   67.042786
H   39.496490   64.018417   50.323219
H   47.492722   60.297626    3.829826
H   51.052555   46.697472   51.683990
H   59.468391   78.616600   76.043137
H   36.193016   60.284794   60.914536
H   59.196770   30.093788   51.082260
H   37.635181   68.966599    4.711998
H   92.375862   60.671703   39.019123
H   66.486832   48.299297   31.823454
H   53.963150   27.644114   64.143822
H   76.455421   42.132126   39.838558
H   93.517281   98.525635   53.682636
H   90.018005   98.140526   17.076424
H    8.980415   24.493763   75.089935
H   61.253990   93.367386   88.842911
H   31.854080   10.154492   44.565231
H   43.664867   39.080761   13.874436
H   68.555023   32.464699   63.536015
H   82.649773   22.934109   61.316463
H   62.248344   38.497002   53.504257
H   77.829353   27.945414   92.872208
H    0.751221   23.710447   88.709763
H   54.748566    0.181278   95.260147
H   28.192373   75.301453   43.623817
H   53.688911   45.754723   73.153976
H   85.945946   54.241894   24.517408
H   52.697628    0.453374   91.161598
H   56.860340   31.903421   44.439644
H   56.344517   15.645769   90.346642
H   22.557310   69.458763   65.971970
H   67.163902   60.703617   46.019505
H   43.394474   79.645653   74.167130
H    0.774747   81.123718   44.867023
H   49.703644   33.419861   88.571404
H   31.118618   75.098549   18.658777
H   84.087738   31.030039   17.105787
H   96.028641   10.463675   25.631439
H   21.014887   32.761391   43.160683
H   79.515717   91.034012   62.864578
H   45.488251   21.921526   60.399971
H   29.151127   79.055237    7.635533
H   83.843399   87.050850   60.953846
H   29.063305    9.626181    6.307571
H    7.720459   72.950356   98.545578
H   78.179016   52.499924   73.711311
H   10.434608    3.662637   78.837646
H   80.447975   44.437874   62.548870
H   29.672663   16.402212   62.077465
H   44.422630   30.089779   60.284382
H   54.988480    8.378387   36.803215
H   70.253235   47.128372   97.589081
H   59.539680   61.497864   38.544376
H   11.696887   86.210876    0.708924
H   78.674164   20.961483   11.285511
H   86.879570   24.840254   86.244469
H   57.055443   31.443930   50.585918
H   72.185387   33.702682   63.506794
H   45.636856   55.974617   25.853994
H   24.440548   22.037561   23.124828
H   55.885651   47.737156   39.634972
H    3.010868    1.771952   51.376198
H   49.394314   49.641521   97.611900
H   88.984177   57.080093   22.214716
H   42.318203   40.104736   17.342014
H   85.550789   80.565895   83.674835
H   56.504364   25.784401   56.976898
H    5.994968   81.343361   78.447090
H   98.592979   60.263290   17.385283
H   87.636078   47.731659   75.283211
H   96.523140   84.597374   12.098803
H   92.340591   28.306351   94.569710
H    4.561260   79.697281   75.022293
H   23.899439   43.517750   71.019585
H   11.554871   86.600204   71.164932
H   37.442646   32.606030   59.509583
H   22.566372   73.448730   61.309074
H   56.470322   18.017214   65.799164
H    6.392068   80.620064   24.007996
H   14.090964   32.994019   24.547569
H   14.962132   45.333569   80.200394
H   61.460800   28.152943    8.139050
