100
TIME:    4.237, STEP:  4237
H   30.790749   33.466766   95.266922
H   83.460182   34.460701   45.262566
H   52.584885   78.730965   73.608574
H   82.187775   58.086052    7.917965
H   57.220627   12.371737   50.821716
H   62.322300   96.617836   98.349968
H   30.909592   47.440876   21.791925
H   86.866447   55.155445   19.166233
H   49.474388   78.923065   33.382603
H   59.054268   77.220406   73.607452
H    6.139603   36.727268   31.620525
H   94.124886   36.069405   91.335167
H   73.695419    5.369923    4.012489
H   45.289253   92.016243   79.677917
H   32.039940   91.561737   47.104259
H   31.164577   41.145622   81.332947
H   83.392738   62.213924   59.099174
H   91.678307   88.655220   52.651981
H   11.261066   56.102432   86.584061
H   78.364891   15.838728    4.807275
H   12.847122   34.410755   42.243622
H   68.585663   49.708664   58.458588
H   29.173973   60.162971   11.124066
H   25.378319   87.497833   92.396149
H   78.044952   50.144936   67.831032
H   27.231684    1.397106   91.990379
H   96.717323   66.352066   84.037575
H   75.035522   54.208542    6.822857
H    3.299995   33.505428   56.886726
H   63.458557   85.973717   20.217827
H   82.808311    1.996056   74.160988
H   33.283855   35.447624    7.023715
H   68.806984   58.483101   79.499374
H   57.125015   85.427032   93.253792
H   75.450623   38.635490   82.731964
H   40.952518   17.289249    6.107773
H   86.182327   49.368149   42.324268
H   88.869347   81.412926   21.435230
H   66.229523   89.101372   33.715096
H   64.114388   15.529271   71.393555
H   45.682465    1.567407   42.167583
H   50.823715    2.015781    1.859707
H   47.736599   88.907974    7.517290
H    8.798216   83.778198   95.006348
H   89.127235   64.718658   18.682287
H   23.424564   43.731098    0.371676
H   74.836227   55.260521   66.138649
H   56.465694   39.009689   30.739449
H   88.882614   81.541168   75.459656
H   14.740146   95.223595   87.323219
H   43.221363   60.588554   98.091064
H   11.043112   70.578110   95.909882
H   96.760460   46.576294   56.792057
H   78.572380   38.075302   18.783394
H    3.438159   29.908731   36.384518
H   98.867661    8.076880   48.389328
H   64.857697   67.289833   58.961418
H   10.559947   76.755165    4.419090
H   24.440054   17.792343   86.206535
H   79.420090   53.458866   43.100227
H   26.974154   81.531517   84.045906
H   48.535210   88.504684    3.642096
H   61.711590   18.157726   42.926659
H   33.986389   64.843918   12.103848
H    0.495210   22.441471   90.142128
H   41.059425   31.638893   96.708313
H   47.626328   94.847321   71.624496
H   87.687080   59.855911   68.755699
H   68.075241   45.342529   94.494659
H   16.228361   61.252998   92.811218
H   87.488014    7.114080   11.321537
H   24.607414   10.907315   66.836266
H   30.731676    8.728092   53.113693
H   36.937664   81.254250   51.405632
H   66.452400   34.679615   22.591532
H   25.822451   79.125328   10.833651
H   51.647598   59.312374   65.982445
H   31.042294   73.674400   48.434425
H   64.690392   41.073322   64.959541
H   91.734619   78.198463   55.899864
H   93.785660   73.115372   33.223904
H   59.233238   71.898392   32.482666
H   85.871681   77.981415   33.453350
H   41.648766   74.728218   76.431992
H   46.022949   83.857994   37.022705
H   53.779568   64.688988   36.013458
H   50.134377   95.288498   25.580153
H   24.156767   66.069786   51.679916
H   43.614120   58.262672   93.537605
H   91.730667   34.954285   75.678574
H   97.418060    2.218154   22.939493
H   91.791519   14.145197   14.260862
H   57.053398   54.649223   46.658245
H   56.750721   70.239319   12.498182
H   83.334862   70.205711   13.448976
H   43.880432   28.416309   48.602455
H   26.289032   10.833268   93.514923
H   22.418592   52.313202   88.236626
H    6.872269   55.114338   90.143379
H    2.388381   69.902809   89.576385
