100
TIME:    8.433, STEP:  8433
H   47.032463   48.674736   91.425369
H   67.577560   61.837620    9.832240
H   24.726450   80.607971   24.349392
H   82.892059   85.210258   77.921944
H   19.632170   48.699390   37.051163
H   97.243286   92.071999   13.893901
H   10.997184   30.774485   49.924747
H   57.069122   18.164026   33.903786
H   46.328636   75.494064   69.261047
H   44.424812   37.470387   37.906776
H   15.837906    5.562729   27.440599
H   33.977394   46.393215   92.659325
H    6.005216   51.547470   87.058716
H   37.529030   79.083015   98.994148
H   83.033211   16.755692   45.357239
H   62.450668   74.147911   33.028595
H   45.975380   39.747799   41.077614
H   81.398071   84.489296    7.197773
H   76.610733   32.128132    7.646107
H   65.313309   26.730013   90.490486
H   63.850548   16.685154   28.358484
H   70.860268   55.278915    1.130450
H   73.149498   26.039976   91.071594
H   35.510429   37.711395   80.766449
H   27.971325   17.380798   98.819557
H    7.844969   77.498642   97.298996
H   34.891708   91.926773   67.294662
H   20.989927   50.063633   45.523315
H   94.537971   14.199896   58.539421
H   24.351475   82.122513   53.787720
H   47.948025   78.258720   42.186958
H   98.222191   19.518009   18.578987
H   64.367325   51.483727   57.508194
H   34.417023    0.888659   16.482500
H   71.081596   21.173546   38.123203
H    5.704191   45.939537   92.914345
H   88.633415   95.699471   72.952782
H   15.441292    4.622330   17.535133
H   89.111961   97.678001   27.091724
H   68.898285   22.713858    1.525036
H   58.915588   45.537933   41.022305
H   89.526505   74.673172   10.480779
H   83.861603   14.074862   10.598354
H   40.868114   54.192787    5.269542
H   25.155834   99.172035   77.745659
H   69.269218   23.759014   17.421289
H    7.622271   83.453011    6.414874
H   56.702328   82.227158   90.363823
H   11.536980   34.028954    8.077318
H    2.792446   59.089092   93.896873
H   42.922543   55.491905   42.324265
H   14.972363   81.219406   20.462524
H   83.793968   70.906128   13.096605
H   81.402191   69.615692    3.942008
H   69.346840   97.632217   72.071701
H    4.099051    3.663026    5.547577
H   30.867516   46.215904   58.035942
H   98.117615   80.494286   96.339378
H   55.368542   95.092293   64.085770
H    2.528762   75.977081   23.756004
H   91.660355   86.397705   56.892002
H   99.614250   49.448898   13.787577
H   46.577404   31.830709   55.194336
H   22.118397   87.701157   98.181274
H   67.045288   87.314331   80.897308
H   83.296486   23.043785   44.809132
H   10.972906   39.912754   74.207199
H   97.840607   99.828972   69.348770
H   77.202362   43.844734   31.329674
H    1.294609   72.210892   83.957352
H   54.244732   21.619152   60.994118
H   78.829849   71.591209   74.180771
H   57.143921    1.181492   45.528858
H   44.564121   15.695698    2.093958
H   68.697281   40.732357   40.697300
H   25.017885   48.049606   28.495810
H   32.679520   95.902222   40.302788
H   28.175222   99.311317   80.167480
H   65.904411   28.748341   11.768532
H   85.963432   49.634239   94.410820
H   75.905205   16.525614   84.011826
H   74.101089   99.159760   81.498924
H   51.281067   48.147739   33.059483
H   30.326645   33.789650   93.193443
H   41.713654   21.386326   30.268204
H   57.208790   18.811207   27.396469
H   30.375856   90.204353   25.661278
H   91.654869   30.256752    8.140923
H   30.694588   24.636103   59.219734
H   20.748064   62.321846   25.676924
H   69.135796   28.788609   11.551658
H    2.255502   29.721230   94.211098
H   26.024921   80.549400   71.141418
H   62.281525   24.793201   95.423073
H   10.788860   94.352310    9.868256
H   90.452789   62.721924   31.873680
H   93.230766   51.631233   52.199257
H   21.999674    3.725506    9.587919
H    6.984434   73.217934   38.685581
H   63.015835   62.226376   85.362488
