100
TIME:    4.872, STEP:  4872
H   87.849281   75.234138   94.685562
H   65.922493   68.871674   85.301147
H   63.499916   24.414890   66.157478
H   82.294357   31.924850   73.113167
H   51.532990   63.269791   33.603775
H   52.473095   95.929893   61.237514
H   97.629433   90.318039   71.449753
H   36.956703   10.092441   60.864002
H   33.864876   17.870590   93.411522
H   41.700676   86.338066   98.470276
H   47.073456   62.278034   70.453049
H   69.891869   67.898857   46.134438
H   33.174637   66.970772   40.915527
H   13.848691   90.058998   28.001390
H   39.762337   34.840393   16.579247
H    5.630824   85.606033   28.622829
H   32.329964    4.216583   16.905729
H    5.252444   57.761501   30.636820
H   21.151451   82.739838   20.038530
H   61.254311    2.353601   48.041023
H   75.165337   71.194977   25.010162
H   29.463730   50.551636    4.382472
H   20.695808   54.998558   92.955826
H   66.379898   95.111542   45.236244
H   55.333160   99.784653   72.520668
H   24.336996   82.628540   32.277607
H   41.960960   39.953915   96.633705
H   21.456894   83.848206   27.814264
H   17.108391   91.118187   26.869595
H   87.807846   70.257622   70.698677
H    7.798191   58.936390   23.921806
H   73.378304   17.905090   48.238594
H   13.534033   12.023802   36.705193
H   83.954773   27.232910   66.501549
H   59.666702   90.634140   21.399414
H   96.152634   67.024590    4.109954
H   47.086914   26.113140   92.359970
H   62.621204   69.795418   66.243782
H   39.424389   75.265007   72.179352
H    4.305861   56.083633   21.352785
H    2.285530   23.354017   57.127911
H   93.752861   30.515341   31.690020
H   53.206226   92.715881   53.382812
H   68.248795   94.419189   57.093849
H   34.046024   39.666756   73.020653
H   15.232121   55.842762    2.953052
H   79.797165   89.793297   72.233238
H   56.499607   45.549988   70.029686
H    7.445661   28.950710   50.129089
H   28.058132    4.886305   42.909630
H   43.172916   99.282913    4.785531
H   41.901985   11.653818   54.225243
H    9.931272   50.258240   19.910414
H   63.864021   27.712563   46.803795
H   52.879272   85.561287   41.786320
H   99.662186    7.408852   26.772430
H    5.116403   48.967308   19.355324
H   63.276260   16.787279   88.063095
H   74.520378   44.623383   37.456871
H   37.516796    2.265278   25.039314
H   67.030151   52.000408   34.536308
H   25.998472   82.594193   74.912720
H    4.819974   74.826462   99.382782
H   77.591713   68.303009   94.863129
H   25.699755   71.726349   49.277424
H    2.051392    0.071642   34.253990
H   96.678375   16.800823    2.281697
H   43.823479   96.171524   99.112373
H   99.720596   99.715492   54.670372
H   29.093370   93.189453   91.474091
H   67.324516   63.909149    3.703630
H   72.247711   89.832611   13.326396
H   89.327454   77.316628   36.830772
H   22.957150   41.069828   13.675964
H   97.070686   35.585567   70.728607
H   40.836067   19.821817   68.104538
H    9.300611    4.273350   77.212379
H   60.875744   32.151897   83.502266
H   95.143959   39.208126   72.042442
H   60.593109   43.614384    1.194167
H    6.209478   79.684738   71.177010
H    6.876712   76.045425   79.383690
H   26.039362   88.596375   93.928070
H   85.335480   29.066931   18.435463
H   15.103004   44.139000   75.466682
H   39.163212   88.011208   80.109604
H   92.544579   49.118835   55.859314
H   34.377151   15.230646   45.076637
H   56.791611   22.906927   88.344124
H   35.588230    8.827003   98.380676
H   23.405022   36.505871   36.349529
H   38.777561   61.900192   26.359823
H   97.758278   73.705757   95.763779
H   18.124695    8.755055   55.311596
H   72.356850   13.325020   28.038898
H   96.328781    3.342235   15.804062
H   75.886009   47.274670   56.995834
H   24.748877   57.719849   78.072517
H   76.622314   57.851574   36.956177
H   41.829136   53.608448   28.404963
