100
TIME:    6.849, STEP:  6849
H   54.152176   93.934883   92.875565
H   11.323757   76.001945    9.956233
H   97.497482   66.648460   42.945660
H   82.626190   50.472015   64.747437
H   33.825180   21.734892   80.001114
H   21.808720   93.788063   57.026302
H   94.014496   23.814594   26.053873
H   81.568398   81.127228   79.341698
H   85.266380   27.790070   68.967888
H   87.688972   14.726318   75.883797
H   63.177734   41.826817   80.018776
H   94.432373   66.995621    5.410152
H    7.017838   47.416309   44.470390
H   15.959784   83.965340   78.452354
H   63.793953   58.246391   21.534611
H   26.140755   12.690517   64.514160
H   73.351234   34.978764   96.879829
H   47.530132   61.566696   62.102020
H   51.939152   65.679352   24.194134
H    7.995132   60.363407   82.644402
H   57.847351   74.378204   71.347267
H   19.000641   53.176132   36.022644
H   94.298180   38.919746   36.393402
H   82.687386   18.762178   98.406708
H   84.625191   43.000511   87.121315
H   15.313641   24.191784   46.361832
H   71.482780   57.773895   35.862949
H   54.642342   76.127876   93.163528
H   60.095833   70.486885   33.415405
H   63.614140   21.327354   27.864082
H   85.606865   36.218811   67.507927
H   98.207428   63.277653   65.217827
H   52.792126   67.376930   14.808965
H   67.488335   46.052689   83.214249
H   10.503256   41.104622   41.750565
H   68.009529   21.871899   97.893349
H   36.707359   53.710571   48.139683
H   80.910149   33.612965    5.757293
H   55.975506   32.187065   80.593506
H   18.094540   71.003555   76.900192
H   67.170990   91.189720    3.704936
H   23.017685   68.461502   29.614082
H   70.229767    4.573061   96.185112
H   42.011356   27.602865   50.394119
H   62.554703   61.663250   42.197941
H   89.716972   93.551041   10.986048
H   95.242477   97.309280   91.208046
H   56.605648   65.912460   92.355255
H   65.230171   65.214699   71.266281
H   69.535400   34.979595    4.649346
H   43.031307    8.416533   25.625156
H   37.988285   28.202896   24.442207
H   50.942242   61.721558    5.088930
H   18.086166   95.453339   34.042923
H   95.466934   58.819382   58.604214
H    2.126180    5.329240   59.470673
H   30.448786   91.921227    7.384341
H   16.065180   30.084295   37.141830
H   30.443100   28.159306   85.686241
H    7.056343   54.225941   68.808739
H   91.740440   60.059746   80.393723
H   55.833534   64.192551   85.458420
H   39.039089   39.919960   63.813965
H   13.347820   79.072495   41.190289
H    4.170405   13.825619   33.386967
H   80.602631    1.789325   51.150177
H   38.060806   85.149658   97.731155
H    7.258478    9.238589   93.624405
H   98.254097   57.660873   30.675297
H   69.142052   92.626396   87.311096
H    4.545053   29.395721   79.991676
H    9.247256   24.213913   58.079674
H   60.423676   79.528152   86.139954
H   79.434578   15.946621   96.209808
H   92.389153   38.406147   20.598854
H   87.571648   46.529926   35.078812
H   88.817963   33.002415   12.209509
H   53.758801    2.880432   92.683678
H   89.948006   33.401051   94.094246
H   63.643570   35.922676   30.873619
H   44.897308    0.137742   89.338120
H   55.239487   88.887543   14.017433
H   51.090645   21.657507   82.207611
H   21.350288   98.242577   37.866589
H   18.839872   20.475761   83.818703
H   93.659286   60.631546   17.398743
H   24.584017    5.374458   50.130150
H   66.179771   57.010868   24.564384
H   97.818222   12.831169   72.174812
H   60.796032   27.489368   69.050186
H    4.311975   43.257713   78.100143
H   85.055542   10.589818   64.022865
H   24.487446   33.023457   48.648262
H    9.196530   28.693689   88.616592
H   38.178062   36.238129   73.469177
H   59.620911   25.271860   13.689367
H   18.961008   60.729752   43.297287
H   25.057169   25.348232   41.387711
H   82.442589   66.377846   71.362404
H   64.627357    2.879128   37.954731
