100
TIME:    2.670, STEP:  2670
H   36.760651   77.168755   96.701553
H   26.999397   49.508690   46.422749
H   25.649679   65.994522   91.995766
H   81.924759   22.646555   93.810974
H   71.256104   86.769791   93.310715
H   86.616219   98.315483   43.165073
H   13.036215   41.629272   99.250328
H   10.029564   19.591272   63.044483
H   87.994240   29.583878   32.019642
H    1.877748   54.720604   12.242969
H   51.898132   73.675827   82.561279
H   53.935852   57.523941    2.875990
H   73.422752    0.168492   59.751907
H   22.878288   96.846169   60.429401
H   12.977287   31.531729   22.427374
H   94.168884   78.201080   11.408003
H    9.401641   58.569168   16.448984
H   58.201508   64.858528    6.979958
H   86.851646   90.362381    4.029639
H   20.585037   49.113125   98.118690
H    5.835072   90.410126   84.774323
H   18.355850   47.628448   91.903137
H   50.095680   72.907280   55.958755
H   70.969574   68.704163    8.775668
H   34.088615   74.417419   56.261353
H   34.416325   48.050793   38.912514
H   31.841377   31.487806   52.949650
H    7.255510   81.066292   55.029415
H   69.227280   91.335518   30.959154
H    3.373643   24.757797   95.646355
H   21.135817   61.478672   98.137047
H   34.342506   78.741692   52.088783
H   58.429783   73.132484   38.331642
H   90.914604   29.033096   59.267990
H   14.402215   57.088623   87.313072
H    4.700155   94.226860   11.461633
H   35.886917    6.754061   18.850706
H   53.633774   10.085461   10.856661
H   32.371292   23.241526   85.569626
H   11.709631   62.227707   48.104694
H   52.774990   47.796558    5.249700
H   91.656761   31.689148   28.239611
H   34.239109   79.511139   94.330711
H    8.861956   57.521492   41.792343
H   25.053225   26.546871   84.589821
H   43.640911   13.842945   94.010902
H   62.592670   70.041290   51.088676
H   56.382008   22.873468   33.782372
H   43.075516   11.320675   37.966682
H   81.881737   71.384804   96.922150
H   43.340916   11.872122   81.568893
H   34.888966   15.982765   98.780296
H   64.266060   37.490295   47.800659
H   14.863659   63.647606   49.635773
H   28.201523   92.571411   23.061476
H   96.906998    9.725908    1.733704
H   65.516701   12.505391    9.926704
H   27.242767   24.739193   44.783279
H    0.855007   51.583050    6.505472
H   82.826157   33.013187   87.669441
H   28.126665   54.403255    6.222329
H    4.150639    3.090723   74.546539
H   55.338055   25.079515   50.385910
H   26.383085   56.318634   54.652622
H   38.298946   47.595966   44.213280
H   37.322792    9.539253    4.056458
H   73.349312   40.671223   95.969193
H   95.930458   70.237244   93.844040
H   89.974174   57.937157   92.774239
H   84.478333   82.436592   96.110870
H   37.248695   13.732659   30.121185
H   53.812775   62.912994   52.107315
H   32.903198   86.237480   93.286613
H   71.433342   80.417099   44.522514
H   90.903221   32.443981    3.801646
H   88.777763   78.695305   16.272793
H    9.373293   95.128799   38.270145
H   57.421780   76.136681   61.895718
H   89.549286   45.676098   47.469650
H   68.583504   63.541805   90.898392
H   63.132030   56.904034   39.567951
H   41.657288   61.664688   63.513771
H   86.731400   51.823303   84.204254
H   33.842411   40.636932   19.554779
H   22.322666   81.874573   88.925957
H   89.840027    7.127132   27.196255
H   45.477989    9.222183   50.859253
H   98.936890   91.527893   67.977852
H   11.092419   45.510490    6.355817
H   30.274342   99.422440   19.664364
H   33.290039   17.604530   89.847244
H   75.844040   96.306938   84.398460
H   56.596226    7.636518   25.473961
H    5.292799   75.188866    6.843466
H   10.427372   10.566673   77.440849
H   14.452682   90.296394   29.540161
H   50.670120   20.906155   83.635277
H   16.668112   38.971130   13.314026
H   81.520897   48.359615   21.397209
H    5.057327   10.122087   40.526764
