200
TIME:    0.914, STEP:   914
H   30.181616   60.238132   26.864559
H   33.971252   42.717789   17.259411
H    4.011205   98.639023   78.546318
H   40.561600   84.851631   26.874763
H    8.054112    0.811695   43.968002
H   67.692200   34.521576   45.600021
H   13.124282   54.825905   62.697155
H   17.992590   17.989738    1.148513
H   14.799681   77.401779   31.277138
H   87.135117   65.456551   69.487221
H   35.685978    8.991941   14.260704
H   33.564880   60.012871   44.857254
H   27.716671    9.377466   33.667717
H   72.547325   56.050579   74.744011
H   87.081436   77.133080   41.320229
H    9.654776   98.196030   39.783401
H   15.919718   39.283859   82.714676
H   20.557964   15.569037   31.521067
H   87.450607    5.301081   52.405731
H   92.200554   70.448692   11.343028
H   66.173775   10.403423   94.961807
H   75.024055   74.576851   44.601379
H   74.822029   57.640930   32.963951
H   22.884296   94.204124   89.472633
H   32.541870   39.811218   21.360226
H   18.103163   92.248383   84.695915
H   11.948297   72.320778   76.181320
H    9.978917   97.933372    2.504743
H   39.456173   36.043159   34.391716
H   62.591980   38.820423   75.311111
H   12.481531   79.608009   17.018852
H   19.669590   79.303207   10.197556
H   10.837914   23.488173   81.411835
H   74.119637   64.313255   50.071106
H   15.643282   61.950981   29.091574
H   11.038088   34.555588   87.197716
H    5.609254   59.881683   91.014870
H   99.576401   62.189983   84.863724
H   28.125381   22.266163   59.413467
H   83.618988   36.916836   37.368256
H   80.704857   73.738220   23.895798
H   46.887100   28.973242   19.845150
H   64.566238   72.298729   75.355431
H   35.779739   95.969215   42.853161
H   51.806221   96.858856   68.686577
H   31.574923   96.297874   50.018101
H   92.675415   93.190704   10.955985
H   73.707024   65.540321   23.417557
H   13.146338    3.175118   61.652271
H   37.997852   20.843122   77.198532
H   62.174820   61.965187    1.157790
H   95.373924   47.298809   78.032478
H   70.356651   75.147881   16.734531
H   12.375191   96.407059   91.684196
H   48.669907   61.395386   68.975517
H   96.665947   55.744576    0.718661
H    3.507016   19.295998   42.424641
H   74.772324   74.247711   93.137657
H   13.959089   87.497543   23.427647
H   27.514675   92.204506   54.534653
H   48.236649    2.226506   22.543785
H    2.050186   18.021540   54.233452
H   90.015839   39.168198   62.145847
H   40.457085   66.113930   18.716095
H   82.183014   86.126953   45.491199
H   12.300149   42.746025   44.978348
H   60.998878    8.944737   99.760231
H   93.567039   92.982307    0.615647
H   40.496307   14.961390   53.448875
H   41.357166   53.377369   50.946598
H   58.169487   88.249527   91.309937
H   13.197876    6.105952   40.046848
H   98.885391   37.315350   76.926590
H   29.823656   94.149818   80.194862
H   87.352005   11.782069   35.921265
H   70.349907   95.281853   58.473167
H   92.578796   55.041618   62.611538
H    1.591392   18.243113   24.920143
H   16.658972   59.716270   19.996714
H   58.118732   86.907990   62.297638
H   71.974220   18.710764   91.127136
H   56.273365   56.468456   67.020988
H    8.370114   21.059515   70.559334
H    2.695045   83.899117   15.818503
H   14.906944    6.451164   38.681450
H   43.655327   62.192139   13.752399
H   66.062965    4.188576    3.316546
H   69.726479   93.459290   36.863754
H   86.315933   73.697662   79.598022
H   20.068268   16.258680   47.450436
H   12.989735   40.711208   77.756577
H   79.360588   94.449005   13.074406
H   79.278900    9.260624   76.533951
H   29.804422   70.218971   87.611488
H   42.202705   47.809059   96.011116
H   41.360146   42.778549   97.371635
H   88.448448   90.965874   27.356728
H   97.197334   40.432941   56.806190
H   21.745537   63.026306   55.269806
H   78.923531    8.878956   27.414957
H   39.937771   99.061768    0.677565
H   15.634250   86.853577   62.146782
H   37.150787   12.537831   39.921009
H   54.261955   69.183899   16.928413
H   24.445280   18.615273   46.939365
H   14.106810   93.774261   12.334859
H   88.755699   36.944080   51.291340
H   60.779324   60.152557   92.679634
H   89.925270   31.581863   31.723927
H   26.018015   18.662996    8.835993
H   56.062286   90.209801    1.270059
H   13.056513   80.294128   98.188484
H   45.387794   88.095963   79.274925
H   60.941032    4.866811   57.574257
H   41.358223   10.034509    3.139989
H   86.532494   86.081337    9.340551
H    4.863301   17.933435   92.037399
H   37.351543   60.171459   20.505913
H   44.458359   83.018433   50.229473
H   88.569542   60.126888   74.486679
H   47.589119   26.238300   65.434029
H   89.208359   11.513462   68.013443
H   48.485786   93.396072   44.024128
H   94.147385   43.065231   88.349419
H   56.748619   92.264809   70.521645
H   72.414413   80.793564   12.518078
H   78.633308   52.336960   45.024887
H   60.685951   92.856163   40.695004
H    0.762133   28.086445   69.530479
H    0.413664   20.954746   77.984169
H   75.816399   61.120148   29.168682
H   55.829536   92.736252   25.221561
H   90.236885   15.386015    2.389599
H   67.871567   30.283543   58.002071
H   37.722095   89.183105   25.445343
H   44.406616    0.761834   73.751991
H   70.008575   88.282021   88.891594
H   96.967339   43.176449   72.548851
H   63.930450   53.759308   71.390678
H   43.813042   76.765434   76.729553
H   83.985474   43.248009   36.682037
H   26.210430   61.489685   61.958920
H   33.338791   69.165504   76.650528
H   26.828957    2.129970   89.293312
H   71.983109   47.413879   71.108063
H   70.636299   73.587296   97.565666
H   60.672112   93.826164   42.455929
H   24.248466   48.329842   64.958031
H   83.203583   36.651596   91.244156
H   30.947231   96.033302   64.774384
H   52.464455   72.756516   46.255978
H   62.159523   88.459480   27.030693
H    7.486776    6.636608   79.804932
H   27.726589   16.613565   59.296169
H   40.339184   71.679916   72.946083
H   83.510445   45.200123   74.798264
H   66.366379   81.097229   88.736496
H   55.628578   25.845825   25.514580
H   81.533852   99.194534   77.608818
H   56.123196   29.443148    4.106075
H   60.576546   57.027107   65.495277
H   11.958120   19.563454   29.704994
H   94.231712    5.183632   36.951801
H   36.014816   39.979748   42.363197
H   52.500710   44.958351   16.447027
H   23.526096   42.993702   58.617428
H   63.293861   86.665474   59.366802
H   24.220997   61.598145   75.883499
H    3.231913   25.978342   35.265419
H   57.231094    5.373424   82.813446
H   66.488892   13.649241   35.919510
H   22.878500   40.412399   59.527855
H   50.695595   48.491924   71.459549
H   62.926071   58.417709   89.876740
H   40.111511   89.966324   67.539970
H   21.712456   51.306885   23.947273
H   28.493755   73.977158   15.101357
H    7.703584    9.843636   73.498550
H   58.364033    5.710822   61.252728
H   54.239624   61.685051   95.892952
H   69.112503    9.342961   26.048897
H   32.822311   30.928799   94.221649
H   34.600788   89.455185   19.420441
H   66.158699   26.467472    1.985985
H   94.239014   59.100906   75.620041
H   13.370230   41.911057   87.327492
H   54.821045   92.979973   14.199396
H   58.040543   95.774117   49.110947
H   87.098976   64.178871   74.246445
H   61.870033   54.606915   74.218521
H   80.016953    8.725143   74.488350
H   42.127609    3.245898   16.039465
H   19.071594   33.558853   73.247246
H   23.328848   90.430038   46.896435
H   61.764687   24.150593   19.611561
H   76.973648   12.037310   20.332245
H   13.941432    3.938055   26.215925
H    9.321301   84.010719   27.958527
H    2.925386   13.497801   47.873421
H    0.977942   12.157740   88.384827
