100
TIME:    8.689, STEP:  8689
H   29.720093   25.198458   91.190994
H   60.507248   75.709015   25.973843
H   29.126841   99.025940   21.344509
H   82.935028   74.663383   63.890678
H   17.338224   69.218918   30.110023
H   93.274536   91.794655   39.246719
H   97.580269   48.061592   69.944283
H   36.948029   40.310513   10.398044
H   40.035667   50.880783   53.146450
H   37.432625   41.146168   47.930214
H   92.025421   15.863080    2.781382
H   24.205910   59.225246   74.436668
H   89.680878   36.053329   61.617493
H   24.853800   78.293953   18.476444
H   86.142586   93.888527   33.046692
H   52.157700   51.757286   11.777761
H   25.389442   56.679440   64.382301
H   86.870728   72.032265   98.323807
H   80.599014   42.868366   21.132442
H   58.416454   21.293489    7.920070
H   48.659142   91.199554   21.410242
H   95.403236   55.618759   79.329681
H   69.731529   23.958921   83.747375
H   11.724154   40.773895   61.754498
H   18.816051   97.078339    0.709839
H    6.637449   69.951767   73.209152
H   12.816385   81.286148   72.372787
H   99.389679   62.012852   53.986206
H    0.104383   37.425747   46.437859
H   34.167122   75.786575   74.139282
H   58.024197    1.215686   21.933052
H   14.385933   12.445498   94.879845
H   82.398575   32.753258   80.570694
H   45.233429   77.427734    5.698268
H   64.710503    1.790798   53.699375
H   27.957121   65.992081   92.109657
H   13.187501   86.324471   93.124657
H    4.860725   99.937187   35.599586
H   78.307274   92.099876    2.284099
H   44.786560   98.747765   21.666639
H   41.419495   54.321136   47.053555
H   67.952286   75.677078   23.550114
H   86.064728   15.610506   29.088734
H   24.522411   58.491615   30.298840
H    2.949835   89.074379   99.651909
H   65.964531   28.640850   18.461329
H    9.623782   97.374886    8.873213
H   56.717953   84.863876    6.203506
H   19.019402   12.827782   97.865265
H    8.165981   62.985577   75.998436
H   42.904964   30.777012   45.023483
H   27.414705   57.464962    3.657159
H   89.102562   72.390503   98.228561
H   75.472504   65.439911   15.237906
H   48.964027   20.067026   74.247482
H    4.417898    3.393739   96.832718
H   47.096031   38.829185   82.383598
H   79.055115   56.318504   89.745628
H   75.559944    5.909359   44.431480
H   85.634453   95.652863   16.474754
H    7.809034   74.491455   36.933018
H   90.528313   47.066086    2.204100
H   63.958263   14.361030   37.639648
H   39.697926   89.095688   91.232056
H   77.205444   66.869019    4.737290
H   67.569923   10.317441   59.945850
H   90.433395   48.762363   86.566574
H   80.157013   14.470460   81.587051
H   89.960175   25.450203   15.273056
H    6.494008   85.070267   83.414383
H   46.113873    4.199929   57.923805
H   57.748398   63.091209   92.946396
H   40.452515   88.517540   38.964405
H   38.929356   99.493629   86.883125
H   81.029312   41.109310   60.107456
H   31.070620   64.457756   11.270358
H   55.929520   73.745972   44.843803
H   40.200924   82.573036   94.308105
H   78.181755   27.996387   14.625465
H   73.408745   35.688927   72.356133
H   80.916924   19.174051   99.312607
H   93.312027    0.820758   60.081314
H   67.474007   52.428989   57.440342
H   47.938065   55.695900   69.810631
H   29.248810    5.372330    5.452566
H   51.316212   28.214527   45.173813
H   47.473515   71.591072   37.868309
H   95.772057    9.771473    5.486436
H   36.007328   10.382980   57.125984
H   98.114029   51.788643   34.827988
H   79.612358   42.610874   16.957909
H   21.196909   48.975021   99.090004
H   42.435078   88.229088   90.938293
H   87.023575   40.324451   12.684406
H    6.362193   71.422623   15.750580
H   11.597411   52.612549   18.651024
H   72.910454   66.322639   37.476601
H   21.505533   16.392418    4.448271
H   94.789268   74.323402   17.242222
H   78.918060   55.658016   60.702068
