200
TIME:    0.498, STEP:   498
H   17.399023   61.618748   19.751217
H   30.263849   36.644669    0.370961
H   12.730199   80.430771   58.056084
H   26.539318   79.989326   37.753059
H   12.470891   90.268219   49.949081
H   81.225403   45.812469   57.912888
H    7.097182   55.121071   54.645153
H    8.670262    0.027435   15.914428
H   97.906181   83.638351   41.425510
H    1.779149   71.284935   85.895912
H   21.186342    0.105655    1.114712
H   31.844666   48.909233   25.035391
H   17.506466   95.570351   50.717522
H   92.209190   54.295452   54.698116
H    7.165611   73.930687   42.343788
H   21.780178   15.336109   48.757401
H   96.344467   19.801914    2.905746
H   30.435711   95.569824   38.927143
H   73.609543   20.361443   46.281830
H   90.877068   76.161583   27.469364
H   61.181343   89.637390   14.020370
H   84.285286   58.675972   60.632385
H   87.279305   60.665588   42.945641
H   14.072957   90.411400   90.777077
H   14.460538   23.080381   36.204220
H   18.447523   73.786224   98.435417
H    3.892030   63.973606   59.455246
H    0.431219   80.772484    1.410143
H   21.935055   48.687691   36.827629
H   81.390686   27.675833   89.701248
H   13.024652   62.228123   16.510246
H   27.234409   69.553207   99.955101
H   20.889427   14.537119   76.330536
H   87.887703   63.859398   42.799866
H   35.607304   79.140244   32.256611
H   24.633621   44.039436   82.434959
H   93.669525   68.860443   87.891823
H   20.153347   51.429119    3.567262
H   43.521622   37.162006   50.166519
H   87.608490   38.627529   53.618256
H   80.581078   93.171570   10.087888
H   26.181047   37.696785   32.181015
H   72.056473   81.855125   59.908405
H   36.706497   75.764626   27.975626
H   37.592232   84.166718   53.674370
H   37.429108    7.124094   45.493809
H   84.836060   13.572157    1.835857
H   83.834709   65.546669   38.372635
H   97.058105   18.961422   61.352345
H   52.884693   18.965803   94.797409
H   72.070816   67.230568   17.643963
H   11.275648   40.138653   69.088631
H   59.134682   87.041115   11.301830
H   18.566769   87.628250   85.523796
H   66.278305   70.647095   82.429375
H    1.998278   65.994148   87.096527
H    4.694185   17.721779   46.887043
H   70.227402   64.577057    0.646851
H   22.737104   79.461411   13.366508
H   37.136135   94.540443   62.224838
H   49.583939   10.342756   34.698578
H   94.573051   17.036066   51.043755
H   78.555145   30.551123   76.180725
H   30.377132   65.520424    9.427887
H   75.495758   79.925293   28.479647
H   28.619089   26.584627   37.500809
H   76.537941   17.719898   91.165504
H   95.896629   92.036507   92.379509
H   25.699583    9.339747   58.714256
H   43.751820   46.126759   50.968815
H   58.351982   81.054459   80.182495
H   24.889465   17.040258   42.958836
H   85.682266   30.123455   90.856522
H   16.270617    3.293676   68.083534
H   82.286575    5.047999   55.481567
H   59.835014    9.968070   61.191551
H   94.337097   39.554924   68.496193
H   16.999229   10.667978   39.145241
H   13.492054   41.187901   29.224239
H   64.388535   89.228058   82.026154
H   54.318218   25.741587   97.303406
H   37.981007   63.950756   79.881340
H    9.993131   16.496344   82.730965
H   16.260702   70.296089    2.260378
H   29.720787    2.052084   50.470634
H   31.935963   76.747314   22.412086
H   47.418488    3.321724    2.362811
H   73.185951    8.941895   21.173386
H   73.582535   72.685211   78.099976
H   22.151886   97.611412   52.027096
H   30.427608   37.120022   79.606918
H   82.258293   90.799103    3.997345
H   59.515835   13.952335   88.381851
H   48.458691   85.164528   76.188881
H   31.662395   53.436256   78.685188
H   58.587685   33.477646   16.931025
H   82.805382    5.355468    9.440613
H   99.802132   32.447762   51.036335
H   31.171806   67.193542   53.795563
H   71.690376    2.119720   27.313395
H   21.377226   87.559814   81.088661
H    0.166195   80.559875   64.441460
H   28.527494   27.741171   34.108143
H   34.273186   68.415833    0.407827
H   24.996733   24.082191   33.452183
H   97.637047   14.141272   31.811773
H   77.879997   33.300327   55.058517
H   63.231106   44.180267    8.765165
H   79.353249   36.832962   11.608204
H   12.654613   24.463167    6.799983
H   50.589020   93.824791    0.977373
H   96.353561   69.833191   93.449959
H   52.613014   83.268570   88.323509
H   62.350212   13.835186   68.300842
H   55.240547   92.712006   17.726460
H    3.509365   98.249794   90.573441
H   21.967319   12.075608   87.187790
H   39.462139   39.695507   28.821342
H   28.660463   67.400024   70.788467
H   77.591270   51.824154   58.967171
H   43.247322   23.473896   79.065620
H    7.156912   21.368198   55.777267
H   38.456490   10.941227   31.682718
H    0.276068   58.034592    6.566983
H   69.196373    2.564107   84.280190
H   57.174526   69.411285   20.549898
H   88.973640   50.394577   61.090805
H   69.785316   89.593468   37.181576
H   95.642723   43.144672   79.010704
H   80.250336   22.926487   70.897011
H   59.023674   75.973663   13.270977
H   71.797066   88.610275   15.411260
H   91.595284   95.147118   99.294327
H   88.269760   19.617893   52.882687
H   17.171558   96.705078   44.561310
H   55.486450    1.295731   79.880653
H   69.319855   87.221962   68.182365
H   93.418999   56.165340   79.121849
H   53.056915   47.941681   71.489067
H   43.587700   96.716118   88.288635
H   63.390499   55.481529   23.244049
H   45.361069   48.849915   52.261288
H   46.711716   61.509716   90.682022
H   45.890968   17.188551   82.399757
H   52.429150   61.210510   57.505039
H   55.393295   66.420792   17.489639
H   50.833244   95.647942   45.434566
H   35.607597   63.814949   67.344749
H   72.082489   54.020370   95.379654
H   17.686184   91.491554   80.342010
H   67.126289   65.691574   49.396481
H   44.647926   99.970955   40.067192
H   88.161240   22.191540   94.407715
H   16.730068    7.064751   69.576927
H   23.843212   60.692600   65.420937
H   71.161079   44.168629   61.998466
H   62.011883   68.620911   83.810715
H   49.714149   32.520386   15.768547
H    0.573641    0.762200   93.036797
H   60.787136   46.416901   88.142044
H   56.490242   73.927742   76.556068
H   31.490652   21.719276   33.308876
H   76.324974   23.321236   37.124775
H   20.744944   27.758923   60.160439
H   56.483864   30.842749   12.359577
H   16.358799   56.230152   60.891476
H   70.457191   93.393990   54.956768
H   23.857594   42.671021   58.681355
H   97.578651   27.331186   36.247719
H   38.246841    8.512736   87.498016
H   74.436157    8.702037   35.954422
H   37.250099   55.864182   58.250389
H   42.657875   66.368301   83.164627
H   68.048965   68.366768   80.225128
H   59.446472   93.095718   87.100273
H    8.872956   49.054466   23.534269
H   32.767315   60.980698   97.700615
H    4.016588    9.446907   68.179214
H   69.003548   15.381873   66.117310
H   74.027657   57.222649   90.024544
H   76.707474   94.434914   35.720650
H   24.431581   30.420986   79.034882
H   53.756428   89.896347   11.178009
H   57.099388   25.697819   86.681831
H   88.859375   77.144119   77.333908
H    4.661566   38.400803   85.245461
H   40.335693    0.105228    4.981806
H   78.026138   78.153023   34.554184
H   99.146828   62.323925   69.492050
H   54.305214   56.869854   68.962662
H   60.145306   22.488449   77.459053
H   45.537888   91.940582   21.338171
H    9.831258   23.661938   63.716286
H   30.596121   73.827744   38.512768
H   76.040817   42.731434   20.972340
H   75.958023   11.016527   26.031647
H   11.176234   92.594414   12.174909
H   21.411425   92.278542   39.690582
H    8.472821   12.333799   66.478401
H    5.316833   26.251808   94.164368
