100
TIME:    5.664, STEP:  5664
H   34.288734    2.604525   93.960464
H   44.048714   11.786752   35.238621
H   77.119446   81.395081   56.859501
H   82.427292   99.292511   29.699371
H   44.439117   26.752001   12.131323
H   40.188732   95.071861   39.671246
H   56.118740   43.798595   33.385258
H   74.707062   78.609543   88.144066
H   14.396004   41.722946   43.558578
H   20.058180   97.710014   29.485868
H   73.403549   94.146072   94.164513
H   39.662514    7.597675   89.759727
H   82.635361   19.077255   62.218193
H   74.633553   87.617836   88.272697
H   49.394051   64.096146   78.509796
H   73.786499   16.335037   62.879608
H   68.641914   56.599186   89.004608
H   22.188681   19.227600    3.182810
H   33.486813   15.964122   61.761860
H   39.918312   85.531776    1.964099
H   28.166924   92.347839    3.514038
H    5.393539   51.603027   36.936340
H   10.120627   48.557274   70.296524
H   92.790611    4.586154   86.415421
H   27.006546   36.976509   78.369789
H   20.726614   59.218735   57.799881
H   73.666534    7.030342   12.348097
H   54.629246   20.816063   53.996330
H   34.329460   62.974339   89.432404
H   18.176292   50.655815   33.659866
H   38.969398   29.957664   61.261284
H   23.385502   96.023346   74.919212
H   69.322746   54.076942    8.054807
H   17.418888   54.650902   33.134972
H   39.980301   30.765181   69.625153
H   64.999420   29.057816    1.618994
H   23.050640   97.106567   54.766338
H   29.889088   55.301922   22.134663
H    5.991752   58.007683   95.428963
H   29.708277   81.938805   83.666466
H   48.157089   50.527054   75.787086
H   22.883068   63.814873   69.115166
H   60.028187   97.465271   10.591161
H   17.678768    7.713017   34.532043
H   65.344612    8.420722   40.794537
H    5.012320   70.948959    6.171805
H   85.984665   32.866226   79.834679
H   56.541904   53.707336   19.034109
H   30.594421   63.356201   18.534248
H   44.668911   16.941053   87.516769
H   43.112675   22.821001   13.134728
H   80.392586   38.162487    2.229769
H   26.360218   54.850525   73.913719
H   45.525093   14.787839   81.753502
H   89.818504   54.971516   48.523685
H    0.650231    6.575745   99.810867
H   55.323700   26.114647   94.680885
H    4.302770   41.993019   67.663681
H   36.984154   78.086815   76.655418
H   85.253220   63.143208    2.512947
H   16.989925   15.170143   72.785149
H   97.891487   75.222366   39.076607
H   58.590481   20.781889   45.072968
H   31.975922   72.617340   73.363983
H   57.138176    8.469482   23.032885
H   53.397453   60.698845   81.083214
H   33.135651   44.180981   40.520767
H   89.114418   41.467991   36.974552
H   39.195583   42.807411    4.995475
H   45.136703   33.024529   89.806366
H   42.175713   10.022141   94.203865
H    6.944900   63.547821   71.314346
H   37.688416   38.141174   16.521996
H    5.524593   90.944542   66.617882
H   35.255642   36.715511   30.768143
H   59.561714   70.583183   14.814501
H   81.209770   35.628063   91.218849
H   98.085342   80.365868   27.241053
H   33.122242   36.881771   80.876549
H   21.756618    0.474207   32.962494
H   21.707575   87.878342   18.513102
H   66.309586   81.202698   13.147109
H   76.136101    1.841327   69.355118
H   39.823929   96.839523   46.097660
H   76.539177   94.597816   98.691223
H   20.933048   17.101486   35.108673
H   45.440483   91.533836   93.624817
H   47.121696   51.835201   36.850876
H   73.227158   78.809959   81.866585
H   65.565948   76.244308   26.692244
H   55.816887   79.270660   53.075115
H   97.377541   21.466188   41.447899
H   48.526733   97.466560   57.010395
H   94.671761   56.801464    8.713923
H   58.664589   42.383404   46.238194
H   61.744766   72.066559   74.895889
H   13.020884   92.726204   11.447465
H   27.344500   66.711472   65.174583
H   38.893066   61.265575   70.618477
H   91.024292   33.287586   52.110218
