100
TIME:    2.816, STEP:  2816
H   26.887405   63.779778   96.567886
H   22.938148   57.425117   55.632404
H   28.159277   76.498520   90.282600
H   81.949265   16.630983   85.808777
H   69.948395   98.472336   89.351944
H   84.352791   98.157310   57.624500
H    5.384567   51.488327   10.667808
H   98.554245   32.221691   49.638798
H   84.405281   15.546606   22.829479
H   97.888054   56.816948   17.960573
H   38.317566   79.550491   68.497284
H   48.363052   64.842209   92.483513
H   64.135124   91.335327   45.241241
H   15.649146   96.396156   71.539711
H   14.753387   18.490843   15.409276
H   88.298676   65.431427   99.288429
H   97.661079   68.225983   29.739939
H   61.321518   57.758583    1.917877
H   89.126213   96.486557   11.721132
H   16.651886   46.013165    8.058954
H   97.171295   75.876068   80.811096
H   32.353012   47.822266   79.469879
H   48.146370   71.719872   51.781662
H   57.404602   70.455200   97.932289
H   28.867027   62.837517   57.338486
H   33.746876   43.701046   25.228079
H   19.251617   25.418768   55.846882
H   94.936363   87.881081   59.855907
H   72.401871    4.581802   24.058039
H    8.971776   21.144333    7.252825
H   26.881826   74.571136   86.585991
H   43.561073   74.707176   38.572823
H   68.713837   62.450264   51.484474
H   97.083336   15.653038   53.117081
H   10.772878   46.052185   96.204155
H   17.394619    5.695809   10.959825
H   49.889648    1.406858   30.354979
H   47.599823    7.413266   21.159184
H   26.208130   20.060808   71.420975
H   97.958023   48.559143   59.592258
H   42.797771   52.805729    8.690028
H   78.535118   38.242172   35.098648
H   35.496693   80.386658    4.876712
H   99.539093   59.968712   56.066864
H   12.388834   20.786938   97.083229
H   41.757320   16.627674   94.603493
H   63.734409   77.981110   52.491066
H   56.389805   24.376665   42.816032
H   47.342834   99.229240   32.142143
H   84.942711   73.605904   86.709991
H   43.329777   97.776489   83.108292
H   41.984455    2.435001   89.196373
H   67.293617   38.336853   39.320602
H   11.482998   61.264992   56.078522
H   16.578064    5.370312   24.300123
H   97.089676    9.572470   96.763519
H   74.773140    8.292375   23.812599
H   16.371185   10.950988   41.022781
H   12.369324   57.751781   95.297173
H   73.190994   44.235645   83.516853
H   37.336555   47.614086   94.838821
H   98.969261    1.731497   67.941162
H   65.241524   15.122995   40.369797
H   36.408913   57.112839   50.688282
H   44.094524   35.934635   57.810555
H   28.353737    2.281229   12.688839
H   61.635628   45.718266    3.018105
H   85.845284   78.586975    0.823684
H   97.250114   47.446526   83.618050
H   87.436829   89.779366   95.803436
H   32.612679    3.798694   28.369591
H   41.774948   58.067566   62.797333
H   23.383375   79.015007   89.543938
H   68.220879   71.178482   35.845299
H   97.943016   32.652279   14.869778
H   92.228600   88.051994    6.449074
H   22.629160   82.474991   40.852146
H   64.281128   66.590630   69.958359
H   96.551208   45.247250   49.099274
H   61.423409   55.589733   78.320328
H   65.988388   58.414471   48.294178
H   52.612411   62.618179   51.305519
H   95.967789   54.260498   98.110077
H   43.886372   53.130341    6.219346
H   15.213284   72.742889   74.772850
H   86.480530   12.489964   37.334896
H   55.228996   98.606773   57.821075
H    1.286898   79.838715   66.458504
H   14.122482   37.381310    5.161307
H   17.366009   93.416336   24.883503
H   39.264954   25.488098   92.930496
H   86.646561    7.286027   87.180962
H   65.964050   12.011049   36.769142
H   19.404507   84.044304   16.687466
H    7.902742   97.488770   80.795891
H   26.511673   84.530891   21.999115
H   39.081192   29.284847   75.238762
H   17.203894   40.214233   10.977917
H   74.565758   48.988964    9.167793
H   14.124405    6.371953   26.464777
