100
TIME:    3.919, STEP:  3919
H   52.296051   62.629059   95.558060
H   92.255409   17.225958   25.208998
H   47.118774   55.852394   77.339989
H   82.134399   71.187248   25.348902
H   60.068924   86.882637   59.444244
H   67.253059   96.962349   66.858574
H   47.574879   25.967045   96.923836
H   11.860626   27.645359   48.364918
H   57.291435    9.497551   53.400745
H   67.744728   72.654396   61.155907
H   35.719193   23.931767   62.250652
H    6.261696   20.129618   13.970457
H   93.975128   24.602615   35.612404
H   61.034950   92.996407   55.478672
H   28.171459   19.966473   62.391415
H   43.950455   68.958977    7.729700
H    8.964471   41.181652   30.150381
H   84.885094    4.119567   63.678822
H    6.308190   42.761047   69.829086
H   86.934044   22.591909   83.156395
H   31.717697   66.069397   50.873428
H   38.098694   49.286514   85.539246
H   33.419731   62.749245   20.223007
H   54.923943   83.683929   16.013584
H   89.418732   75.363647   65.482521
H   28.686571   10.837224   21.842978
H   24.138727   79.569717   77.729591
H    1.868581   39.365372   96.311607
H   96.385254    4.654592   71.919136
H   51.264740   93.844139   94.938263
H   70.294243   73.479240   99.320137
H   13.205146   44.232704   36.462578
H   46.406887   81.749855   50.851425
H   43.689011   14.569679    6.650489
H   83.355011   62.673759   63.366531
H   13.304373   92.343353    7.159230
H   55.681465   61.013657   17.267019
H    2.013919   87.230827   98.995354
H   79.650970   96.030449   64.532021
H   94.067604   45.299866   46.373409
H   67.415894   90.654907   34.675640
H   79.403732   87.744888   86.919586
H   44.997478   87.001022   84.547020
H   29.103857   78.450378   63.912842
H   16.711794   77.266693   91.469788
H   27.527180   37.665730   99.080391
H   72.351852   37.966942   63.085831
H   56.448711   35.734390   11.063393
H   79.585617    7.878760   88.143555
H    8.070666   90.385857    9.565174
H   43.245625   91.289024   94.738129
H   95.589417    0.084922   16.786312
H   90.166191   44.732422   75.260841
H   85.938164   43.264832    4.751769
H   28.757187    2.039564   33.679363
H   98.469772    8.411688   59.214798
H   44.698734   76.465523   28.717062
H   34.239006    6.786220   12.610371
H   99.360893    4.355570   10.618965
H    0.406226   29.015432   52.144905
H    6.913828   96.321312    8.840473
H   59.821648   91.464584   18.031143
H   40.121304   39.857964   64.732872
H   12.149740   63.112892   20.738506
H   87.874336   47.840351   60.528568
H   60.594765   47.447670   77.905670
H   73.139694   83.852020   56.271832
H    9.653687   41.669510   53.553463
H   52.225845   68.191986   14.438940
H    9.785727   45.257408   93.480835
H   97.585640   28.751427   15.136654
H   50.827133   21.461349   43.552822
H   51.465607   24.456806   61.267975
H   43.939526    1.376822   70.300468
H   51.121189   34.225925   98.484291
H   18.303820   58.745064   32.230900
H   22.774405   86.873825   60.358631
H   16.102077   94.466484   30.871546
H   49.441948   42.007389   61.410744
H    7.330036   95.516304   83.295921
H   87.565018   69.825516   14.218543
H   35.372078   69.821609   59.073242
H   65.754066   72.673004    3.165374
H   19.771517   47.516548    5.477445
H   61.506622    3.747919   67.849335
H   61.099255   53.007233   13.930608
H   28.895880   18.409706   10.416508
H   19.038809   91.529778   54.986755
H   37.014999   75.968697   96.138435
H   19.846048   48.038498   64.309647
H   84.404205   85.046059   16.223917
H   68.262741   90.231987    8.201048
H   36.668907   45.107185   22.066813
H   26.013859   50.949806   91.056709
H   88.832512   98.688683    6.142026
H   17.614960   40.973701   65.027473
H   51.530396   92.584145   11.803616
H   21.251616   49.605621   93.326683
H   22.021111   53.743565   16.779152
H   82.634941   78.064369   20.210039
