100
TIME:    1.425, STEP:  1425
H   20.955374   91.341629   97.841385
H   61.631279   82.006813   67.888817
H    4.249255   76.424431    6.607919
H   81.715790   73.939842   62.055752
H   82.407455   86.977562   27.066658
H    5.919096   99.664284   19.867971
H   78.285423   57.561611    1.889643
H    7.884109   11.883137   77.355659
H   18.598778   49.285492   10.387881
H   35.897514   36.844246   63.493851
H   67.705002   23.580235    2.486631
H    1.450121   95.118767   91.496391
H   52.617287   75.492836   83.495354
H   84.524178    0.683767   65.684364
H   97.832939   42.739246   82.274368
H   44.228531   87.095329   14.753432
H    9.499548   76.234512    3.098671
H   31.595940   25.403091   50.144333
H   67.455513   38.134392   38.436581
H   54.124580   75.551865   13.353220
H   79.715118   14.353706   18.567699
H   98.986015   45.980774   97.918312
H   66.718224   83.032784   91.578491
H   86.643562   53.772373    1.240598
H   78.618034   73.158669   47.076210
H   40.124981   85.148224   55.606735
H   39.199417   83.242081   28.243803
H   12.304749   22.953884   13.874942
H   42.156281   78.379242   89.812370
H   55.633907   55.571243   96.672447
H   72.157204   49.831619   96.650360
H   55.732517   13.142610   67.344688
H   70.733719   64.222450   26.172209
H   38.311378   43.129921   11.718569
H   45.351219   51.201118   11.501854
H   96.452576   96.424576   15.740966
H   16.475395   52.349953   20.749578
H    5.094536   32.872593   23.000065
H   86.657791   50.088448    5.546830
H   28.974691   78.779869   50.150707
H   37.857933    5.078461   75.916916
H    3.550313   75.813530   69.749023
H   23.515196   72.045242    4.403098
H   88.363823   36.653076   20.063311
H   33.047623   75.666367   78.051102
H   59.703037   90.096474   88.957649
H   51.126759    2.610336   39.799751
H   56.315517   10.055113   56.748852
H    6.686348   14.431313   87.630325
H   55.776600   52.438808   83.998375
H   43.435902   32.069405   68.441833
H   74.385414   31.509356   80.513565
H   38.439476   30.271362   20.107449
H   43.691898   83.955772   94.698624
H   27.315575   83.428284   12.498249
H   95.349228   11.034340   44.116440
H   86.590591   48.429314   91.516716
H   19.949028   42.314278   76.850540
H    2.664519   98.977615    2.084904
H   64.981979   37.318409   23.079185
H   49.591045   12.303605    3.292315
H   48.335114   14.681385   30.877914
H   70.890686    9.978802   35.797707
H   40.891594   49.546135   88.451256
H   88.882820   47.032093   28.268332
H   13.805161   71.432106   30.442472
H   73.238052   97.629700   35.862072
H   81.931190   99.033737   34.325840
H   27.923820   47.394913   70.860023
H   59.251846   19.816072   98.732483
H   76.781853   98.443291   45.056797
H   56.468548    4.232134   60.954628
H   14.078938   47.819004   25.209332
H   98.827293   59.204025   18.516609
H   30.877247   30.671305    9.422306
H   59.349613   98.901268    0.045887
H   96.335442    3.037218   16.248850
H   98.929413   57.544586   93.136780
H   29.856684   49.327976   33.578255
H   29.640945   31.345072   98.156258
H   38.768131   44.023937   65.157509
H   48.242664   53.533890   67.619827
H    7.961998   31.040594   65.624084
H   48.197903   34.100689   33.271980
H   82.943466   59.750900    9.614651
H   18.493595   61.399570   40.739677
H   62.327248   99.743805   91.492508
H   78.894852   91.205795   80.930290
H   85.254829   14.830703   16.541004
H   40.349335   50.648262   75.156731
H   82.339394   50.376743   63.555126
H   83.722527    2.680055   60.672302
H   76.714912   70.327438   29.157194
H   84.959450   99.668892   22.899487
H   31.955940   22.086548   48.831078
H   11.620789   39.458794   93.845657
H   49.492355   49.458218   55.236130
H   12.097260   28.370697   33.236717
H   40.828209   42.992908   25.685658
H   27.738724   42.101048   60.438057
