200
TIME:    0.450, STEP:   450
H   15.924106   61.778049   18.930447
H   29.836023   35.943924   98.422340
H   13.736226   78.329819   55.691826
H   24.921307   79.428291   39.008247
H   12.980519   89.051666   50.639206
H   82.786926   47.115265   59.333603
H    6.401748   55.155128   53.716076
H    7.594609   97.954681   17.618221
H   95.956841   84.357956   42.596470
H    3.468834   71.957298   87.789223
H   19.513308   99.080269   99.597870
H   31.646179   47.628044   22.748312
H   16.328365   93.977333   52.684807
H   94.477867   54.092937   52.385128
H    9.483048   73.561180   42.461891
H   23.179287   17.313831   49.792862
H   94.086411   17.553837    5.236221
H   31.575451   93.262329   39.781696
H   72.012497   22.099205   45.575226
H   90.724358   76.820763   29.330082
H   60.605293   87.241272   16.219425
H   85.353889   56.841255   62.482117
H   88.716682   61.014587   44.097374
H   13.056264   89.973778   90.927589
H   12.374188   21.149900   37.916988
H   18.487257   71.655975    0.020743
H    2.962461   63.010471   57.525314
H   99.329620   78.792381    1.283840
H   19.913387   50.146675   37.108696
H   83.559753   26.389975   91.361649
H   13.087320   60.222752   16.451561
H   28.107273   68.428207   98.773338
H   22.049217   13.504267   75.744232
H   89.476326   63.807030   41.960876
H   37.910770   81.123642   32.621723
H   26.201553   45.133858   81.884544
H   92.291840   69.896454   87.531471
H   22.527584   50.187481    5.725437
H   45.298111   38.880817   49.099564
H   88.068817   38.824917   55.493256
H   80.566795   95.413879    8.494641
H   23.791887   38.703316   33.604294
H   72.920731   82.957787   58.126057
H   36.813431   73.433327   26.258921
H   35.952156   82.702240   51.942192
H   38.104584    8.373285   44.971775
H   83.931519   15.923826    0.783532
H   85.003288   65.547401   40.098221
H   95.201782   20.782955   61.317738
H   54.602406   18.749189   96.828049
H   73.212662   67.838112   19.546246
H   13.110502   39.312481   68.056648
H   57.839943   88.413307   10.674923
H   19.281155   86.615311   84.812981
H   68.310043   71.714600   83.981743
H    2.613604   67.176643   85.524750
H    4.831171   17.540138   47.401936
H   69.702988   63.461216    1.513197
H   23.749952   78.534164   12.205573
H   38.246304   94.809975   63.112167
H   49.739395   11.279249   36.100983
H   93.710258   16.922358   50.675713
H   77.232758   29.556768   77.800110
H   29.214138   65.451942    8.356171
H   74.724152   79.209717   26.516848
H   30.502054   24.719790   36.638016
H   78.330910   18.732380   90.173805
H   96.165428   91.927376   91.429192
H   23.992216    8.691096   59.321800
H   44.028126   45.290150   50.971378
H   58.373039   80.224258   78.898560
H   26.238495   18.301947   43.294834
H   84.158829   29.293621   92.463821
H   14.706841    4.348752   66.686073
H   81.702103    4.270991   57.738525
H   58.621758   11.662665   61.505211
H   94.539978   37.767998   69.175148
H   18.777092    9.793924   40.786598
H   13.127125   39.049412   30.287350
H   65.111801   89.495758   84.302521
H   52.280987   26.552835   98.016052
H   35.870350   64.813927   81.365227
H   10.180402   15.969825   84.135384
H   17.825979   68.726509    0.695987
H   31.430077    1.544504   51.830925
H   30.583637   78.426758   23.411293
H   45.267181    3.221703    2.252765
H   73.585121   10.728409   19.362930
H   72.113297   72.568390   77.927124
H   22.392303   95.459923   52.555172
H   32.439682   36.705654   79.820419
H   82.592644   90.377960    2.950004
H   57.235622   14.493687   89.748917
H   50.611095   86.889015   74.870888
H   30.446117   54.085548   76.686043
H   60.575478   32.404465   19.187891
H   82.154259    7.015708    7.373391
H    1.121664   31.701935   50.581867
H   32.259453   67.674377   53.625458
H   70.855782    1.339810   27.301676
H   19.235624   86.232666   78.828407
H   98.381294   79.833679   64.706230
H   27.532499   29.495413   33.437428
H   31.966787   68.327209   98.501678
H   25.060362   24.712990   31.895969
H   95.736778   16.491339   34.059036
H   75.606194   32.704319   55.281906
H   63.514004   42.337311   10.621260
H   78.133400   37.438858    9.287159
H   11.112681   25.132418    6.565058
H   49.957489   94.241905    0.943601
H   94.426193   68.626160   92.903206
H   53.446693   82.711563   89.367577
H   62.512810   14.870007   69.538635
H   56.842354   90.713226   19.409473
H    5.468270   99.653847   88.408035
H   23.940830   11.399720   86.628220
H   39.705669   37.332897   29.780815
H   26.837557   65.597900   73.160782
H   76.324547   50.866146   57.176582
H   42.746346   23.154926   80.638496
H    9.228008   22.505283   54.365341
H   37.299263   12.965687   30.258799
H    0.983275   59.761826    8.668972
H   70.632652    3.752565   85.867714
H   55.415981   68.098053   21.476686
H   90.166756   50.170456   62.944565
H   70.835243   89.217003   36.776180
H   95.052025   44.882160   80.104576
H   77.923798   23.153996   70.079262
H   57.086052   77.687531   11.436626
H   73.639473   88.134201   14.279302
H   91.752022   92.811790   98.937271
H   90.623398   18.387241   52.291988
H   14.800319   97.572998   46.766998
H   56.764893    1.357335   80.587807
H   69.240387   87.099648   65.792839
H   93.009575   57.664059   79.880272
H   51.802277   47.270416   71.500420
H   43.561699   99.018120   89.622375
H   61.014156   56.893089   21.693512
H   47.570786   47.391479   51.142330
H   48.254745   60.626232   92.301041
H   48.090431   18.926039   81.604347
H   50.172924   62.802429   55.935459
H   53.634567   65.593887   19.788528
H   49.697990   95.858147   45.778255
H   36.918266   65.601692   67.620140
H   70.799286   56.024460   95.856827
H   16.156063   90.967506   82.138275
H   68.818184   64.876389   49.758846
H   42.627357    1.299098   41.571404
H   85.931381   23.986340   96.092651
H   15.461220    5.962983   70.763084
H   21.939831   59.424961   64.552650
H   69.736153   44.049610   60.521721
H   61.509441   67.181335   83.242355
H   49.031715   33.290527   14.644005
H    2.770514    0.943060   94.816948
H   61.325283   48.375397   86.300003
H   56.018745   75.877815   77.832314
H   33.744335   21.968025   33.724709
H   74.258812   25.414040   37.144733
H   18.983011   26.348827   62.213966
H   56.943459   29.214025   11.887943
H   15.531802   57.757435   61.153866
H   71.283730   94.170357   54.447918
H   23.815662   40.487122   56.696491
H   96.926430   27.487284   36.361061
H   36.056351    8.874965   88.038544
H   75.353149    8.131206   35.958450
H   38.908302   57.647079   58.102989
H   41.730446   68.430801   84.515213
H   68.640030   69.514839   79.111481
H   61.677429   93.456802   89.357231
H    7.390992   48.795189   23.488218
H   33.260418   59.481247   95.692680
H    3.591176    9.401131   67.565445
H   70.231087   16.497744   66.678711
H   76.310982   56.707756   89.347420
H   77.583817   92.714821   36.836678
H   23.463411   30.362392   77.282562
H   55.966694   89.947250   10.226959
H   56.054039   25.609013   84.915962
H   88.238647   79.226028   77.531662
H    3.656706   37.995773   85.005226
H   38.664307    0.927431    3.918237
H   80.332169   76.119820   32.874557
H    0.536929   62.109875   68.943466
H   53.432350   57.130962   68.356216
H   57.852276   24.076523   77.801826
H   45.931381   90.636139   21.949560
H    8.765080   22.520000   62.616737
H   31.434652   71.912094   37.545422
H   77.688034   44.875416   21.129353
H   75.840836   10.898745   26.689270
H   10.857173   91.285576   10.554791
H   22.806414   93.232521   41.044281
H    9.112912   12.199492   68.625130
H    5.817466   27.878059   94.831238
