100
TIME:    4.184, STEP:  4184
H   34.374908   38.327148   95.315445
H   84.923958   31.588549   41.920547
H   51.673866   74.917870   74.230476
H   82.178879   60.269585   10.823174
H   57.695343    8.123553   52.258804
H   63.144360   96.675255   93.101402
H   33.687206   43.861904   17.647257
H   91.032143   50.570431   24.032681
H   50.777229   84.018784   36.718960
H   60.502678   76.459404   71.532288
H   11.069534   34.594685   36.725559
H   96.147484   33.412773   95.107826
H   77.077469    8.575066    9.278885
H   47.913536   92.179604   75.644852
H   31.395203   96.295959   49.652119
H   33.295624   45.781181   85.732361
H   87.654671   58.708546   54.274376
H   90.546104   91.232597   54.489788
H   10.435570   53.878868   83.791565
H   79.793083   16.964258    1.198832
H   15.992218   39.687222   43.681923
H   63.504501   49.638306   62.972031
H   29.881599   60.594017   12.640510
H   30.302589   86.862183   96.332169
H   79.940582   54.348236   67.439613
H   27.473288    2.963947   96.974495
H    1.287438   68.555008   82.986244
H   79.507721   51.734680    5.070876
H    2.147499   28.696941   59.392128
H   61.426254   87.285454   16.004620
H   80.722633   97.243355   78.354179
H   29.937391   36.911804   11.930183
H   65.073952   62.360893   74.724716
H   54.885681   90.284180   95.486656
H   76.768021   42.641869   79.504379
H   36.345264   13.138041    6.274520
H   81.098740   51.309067   38.148060
H   91.060158   82.382576   17.695324
H   68.466431   90.256218   38.851250
H   69.106590   20.490955   67.223816
H   49.304703   99.748917   40.918926
H   55.587051   99.637054   99.369766
H   47.280079   88.590149    3.689082
H   12.182489   82.890228   89.824097
H   93.724785   66.809998   14.146808
H   24.108334   42.720203    0.156223
H   74.422165   52.378258   65.629967
H   56.462864   38.463806   27.460106
H   87.333115   85.930878   77.573639
H   13.628566   94.417305   91.030373
H   43.225407   65.705299   97.532242
H    8.467554   75.495911   99.388977
H   95.661415   46.268982   59.870434
H   79.800011   38.940224   16.444790
H    7.657987   25.263872   35.933659
H   98.801346    8.132681   50.193573
H   61.497784   68.819115   53.920692
H   14.506379   81.760307    5.784304
H   20.260206   15.552828   90.275185
H   82.917786   49.384960   44.607674
H   23.630720   83.996483   88.178444
H   50.416283   88.998001    6.040288
H   58.113209   21.774506   46.561028
H   30.346857   64.555206   13.542957
H   98.391685   26.674492   85.206535
H   44.315315   34.273689   93.574539
H   51.878555   93.014771   69.065720
H   91.348137   56.824844   66.221992
H   65.433975   49.150772   97.818481
H   15.154589   58.587067   92.922821
H   89.170952   10.720245   11.957390
H   28.977512   12.666373   62.955936
H   34.187393   11.349545   54.472740
H   38.104641   84.607994   54.554771
H   63.896877   34.604000   18.573629
H   24.569345   75.728722   14.399784
H   46.835335   63.906284   65.045143
H   28.552258   77.139748   45.507278
H   62.148895   41.229000   64.368370
H   94.333832   81.084770   60.465874
H   92.748886   72.567062   30.056288
H   55.256378   71.552261   36.914429
H   82.518745   77.096680   28.405346
H   38.002670   70.192940   81.272964
H   48.603561   87.172920   42.160477
H   54.999516   62.742149   32.332993
H   46.594627   99.142029   23.052916
H   23.303774   70.313118   52.231056
H   42.514267   61.213676   93.971077
H   96.416367   37.134987   73.783752
H   95.249084   99.356285   21.820230
H   87.870056   10.159542   13.250973
H   53.655983   53.058884   42.559673
H   51.627911   67.024673    8.924669
H   84.251137   74.952873   12.231151
H   39.502853   30.509064   51.339958
H   30.495770    7.791789   96.562973
H   22.224096   51.861938   89.084969
H    9.397057   54.885876   94.582420
H   99.096352   71.263069   94.681808
