100
TIME:    8.924, STEP:  8924
H   13.828593    3.648391   90.975845
H   54.016922   88.442245   40.791859
H   33.166264   15.932239   18.586121
H   82.974472   64.981682   51.008636
H   15.232454   88.055206   23.738926
H   89.631348   91.540062   62.520454
H   85.262993   63.930618   88.321587
H   18.477493   60.640293   88.821541
H   34.258919   28.286411   38.353168
H   31.013876   44.520420   57.131416
H   70.166290   25.317986   80.144218
H   15.235992   71.004646   57.708839
H   74.695755   21.830193   38.264870
H   13.218617   77.569618   36.360699
H   88.996895   72.897163   21.745995
H   42.709076   31.203392   92.270569
H    6.491987   72.223106   85.775276
H   91.898026   60.597099   90.176834
H   84.260132   52.727566   33.512470
H   52.085697   16.302931   23.919977
H   34.713905   67.805695   15.031973
H   17.932917   55.930725   59.317245
H   66.593941   22.048578   77.023972
H   89.889618   43.585175   44.300541
H   10.411498   78.442856    2.444548
H    5.528984   63.023972   51.094379
H   92.552361   71.518387   77.034348
H   79.560120   72.981857   61.754875
H    5.214475   58.747005   35.329002
H   43.178276   69.970383   92.821381
H   67.273170   22.288372    3.340603
H   29.223988    5.953001   73.124702
H   98.950699   15.560131    1.741352
H   55.162552   55.891327   95.798256
H   58.862038   83.997993   67.997314
H   48.385334   84.398071   91.370979
H   35.726891   77.718513   11.641545
H   95.147392   95.637794   52.182190
H   68.388908   86.979332   79.510666
H   22.652735   76.748787   40.156395
H   25.358999   62.383842   52.590054
H   48.147827   76.598633   35.547092
H   88.087128   17.020504   46.062191
H    9.517567   62.437805   53.274952
H   82.564636   79.805046   19.762308
H   62.931564   33.122448   19.416052
H   11.461064   10.155474   11.130035
H   56.732296   87.284302   20.743687
H   25.888031   93.365089   88.491943
H   13.098719   66.563713   59.567745
H   42.888828    8.088661   47.501282
H   38.835888   35.657825   88.230843
H   93.975685   73.753113   84.580948
H   70.029236   61.605553   25.607189
H   30.253159   40.661636   76.244781
H    4.710590    3.146542   88.832764
H   61.993301   32.048409    4.734064
H   61.556335   34.125893   83.692772
H   94.095024   15.839425   26.389730
H   70.125801   13.715894    9.790794
H   22.633444   63.561962   18.611294
H   82.187706   44.878738   91.571892
H   79.911560   98.324852   21.524994
H   55.835888   90.375824   84.852890
H   86.532150   48.099339   26.622221
H   53.133430   98.635246   73.840889
H   71.579178   56.886028   97.912094
H   63.924026   27.910992   92.821411
H    1.671660    8.564598    0.533989
H   11.266799   96.874771   82.915955
H   38.649998   88.210457   55.105354
H   38.397545   55.288475   10.171947
H   25.130325   76.892326   32.938442
H   33.756817   84.619667   72.919960
H   92.349731   41.455341   77.925369
H   36.626839   79.518181   95.457779
H   77.272293   53.406292   49.012314
H   51.239857   67.207817    7.287875
H   89.451973   27.306118   17.248255
H   61.883934   22.886927   52.110619
H   85.517525   21.605234   13.358642
H   10.946337    2.346298   40.422081
H   82.337212   56.359043   79.819939
H   64.104729   75.805153   48.347248
H   17.806473   90.671005   82.671997
H   45.907009   36.846985   61.492859
H   63.168629   54.504662   49.073982
H   99.551506   90.967201    3.049919
H   40.884037   97.298729   55.203987
H   77.337814   42.119492   43.227760
H   89.229515   55.299282   21.920677
H   38.584530   66.649506    3.567356
H   57.499088   95.278801    9.111201
H    9.735670   54.581654   28.529322
H    2.298792   50.372723   21.149942
H   31.007431   43.332458    6.512688
H   54.257042   79.808891   23.961128
H   21.051928   28.020321   99.730186
H   83.594353   75.338188   97.558128
H   93.515915   49.628468   38.063023
