100
TIME:    3.038, STEP:  3038
H   11.874952   43.421196   96.364639
H   16.762825   69.461655   69.636124
H   31.975241   92.470352   87.677650
H   81.986526    7.484018   73.641052
H   67.959961   16.266598   83.332443
H   80.911140   97.916801   79.609550
H   93.749168   66.479210   28.028496
H   81.105484   51.426846   29.254810
H   78.948097   94.201981    8.855179
H   91.821129   60.004539   26.654467
H   17.667664   88.483200   47.113644
H   39.889343   75.969986   76.681053
H   50.014519   77.904083   23.176739
H    4.657290   95.711891   88.432930
H   17.454033   98.661240    4.737599
H   79.372742   46.014557   80.860695
H   79.809212   82.910583   49.949474
H   66.064903   46.962776   94.221375
H   92.584801    5.799590   23.416307
H   10.671341   41.299526   23.173761
H   83.997498   53.775551   74.784821
H   53.636368   48.116974   60.564514
H   45.182350   69.914360   45.430191
H   36.778412   73.117737   81.445564
H   20.927689   45.231239   58.976318
H   32.728947   37.087048    4.420013
H    0.108267   16.190504   60.252262
H   76.203758   98.243294   67.194084
H   77.228989   24.722979   13.564562
H   17.483944   15.649859   24.900608
H   35.619259   94.479187   69.022057
H   57.578346   68.572502   18.021156
H   84.350311   46.207436   71.483986
H    6.463489   95.308266   43.764328
H    5.254191   29.270752    9.722267
H   36.696957   23.135283   10.196801
H   71.182045   93.276840   47.847775
H   38.424911    3.350230   36.824451
H   16.836746   15.224375   49.907272
H   77.047287   27.775610   77.058388
H   27.625624   60.422413   13.919829
H   58.583031   48.206360   45.528610
H   37.408909   81.717926   20.911854
H   85.362610   63.689827   77.773033
H   93.131721   12.028490   16.080767
H   38.893230   20.861988   95.504555
H   65.469040   90.053986   54.623466
H   56.401661   26.662348   56.552147
H   53.831497   80.842155   23.286486
H   89.597069   76.983192   71.181915
H   43.312840   76.344086   85.449020
H   52.773487   81.835785   74.623558
H   71.897163   39.624084   26.426636
H    6.342541   57.642113   65.875031
H   98.902725   24.826591   26.187502
H   97.367447    9.339159   89.206116
H   88.848000    1.886316   44.926582
H   99.840813   89.985748   35.304764
H   29.877365   67.131638   78.254906
H   58.540901   61.299931   77.202644
H   51.340279   37.290829   77.528946
H   91.090050   99.664810   57.896339
H   80.310692   99.975029   25.145706
H   51.654137   58.320465   44.660313
H   52.906979   18.203682   78.484673
H   14.715899   91.244942   25.814472
H   43.824409   53.392536   13.736758
H   70.510292   91.283142   11.436568
H    8.314602   31.495018   69.695625
H   91.935364    0.944495   95.335968
H   25.562618   88.693916   25.706207
H   23.470461   50.699860   79.050446
H    8.907949   68.032890   83.853020
H   63.335941   57.129890   22.651176
H    8.646495   32.969006   31.699482
H   97.475761    2.279454   91.510895
H   42.785793   63.234200   44.778202
H   74.711090   52.074009   82.217545
H    7.197006   44.595165   51.577194
H   50.536140   43.498226   59.194778
H   70.331100   60.711163   61.562824
H   69.269669   64.068008   32.742287
H   10.013088   57.966370   19.254246
H   59.158695   72.127167   85.942505
H    4.403434   58.857098   53.252373
H   81.372253   20.644405   52.751186
H   70.055870   82.465569   68.406860
H    4.859812   62.064758   64.148262
H   18.730091   25.020979    3.344998
H   97.738037   84.283768   32.819366
H   48.350098   37.475056   97.618729
H    3.072545   23.980860   91.411888
H   80.196350   18.671537   53.937645
H   40.862316   97.509422   31.655766
H    4.064125   77.604431   85.897392
H   44.847946   75.764168   10.532391
H   21.460178   42.025051   62.471458
H   18.018576   42.104431    7.425751
H   63.990135   49.945919   90.572044
H   27.912951    0.675302    5.078956
