100
TIME:    0.927, STEP:   927
H   54.632973   37.010628   98.297318
H   75.484032   55.006741   36.475063
H   95.691589   40.595730   12.455368
H   81.632202   94.456810   89.351189
H   86.867996   47.060661   40.569862
H   13.641582    0.204739   70.550194
H    4.387160   23.932783   62.945377
H   47.025925   68.798355   23.079689
H   30.840569   97.166016   41.735909
H   49.507103   29.694317   43.991333
H   14.027740    3.542486   50.455704
H   20.458683   70.156456   26.943792
H   84.295639    5.622536   32.992882
H    9.182182    2.219113   27.785137
H   91.776634   87.221252    6.211546
H   64.251572   30.654751   56.091293
H   49.537117   43.300980   57.756248
H   20.953712   49.620712   67.408981
H   59.699165   17.241282   12.201456
H   67.556343   86.096405   79.429848
H    9.267044   63.932579   32.084190
H   51.234669   45.323471   40.323383
H   73.367241   87.082985    5.826778
H   32.913208   47.799656   38.227821
H   96.429802   12.656429   43.402153
H   42.408443   99.988831    2.285823
H   82.142868    3.941914   18.361464
H   54.322739   99.708420   97.414352
H   31.327881   33.196323   13.352764
H   36.537930   67.896622   57.082302
H   52.567295    5.171908   36.056664
H   24.288366   26.900574   13.447014
H   35.654232    0.659037   81.308434
H   17.270088   88.768776   32.697426
H   57.729790   88.845955   81.176163
H   53.154175   57.305553   17.454657
H   68.709587   70.587257   81.509346
H   25.676598   41.987446   87.857414
H    9.045107   60.719276   53.278992
H   75.879845   25.400343   10.968119
H   71.890381   87.989281   64.184250
H   48.307701   53.463440   46.352085
H   19.225630   69.058884   68.430305
H   20.164038   28.306551   71.370491
H   76.244514   95.317062   35.434052
H   66.112160   80.630669   86.953529
H   45.868336   75.747986   35.544380
H   56.288921    4.927770   25.935408
H   92.128471   55.674217    7.494819
H   45.331944   44.858929   18.829651
H   43.473896   80.147499   63.191013
H   50.182991   77.720779   13.205383
H   28.108805   27.383789   49.031792
H   55.223194   92.078972   72.722672
H   66.962433   39.770626    8.272324
H   94.726120   11.557713   61.069534
H   55.018341   62.798790   44.152916
H   57.032166   89.343727   89.677444
H   63.386223   77.936325   40.317165
H   97.847122   99.039169   37.243492
H   18.176451   35.461334   42.119087
H   66.010101   19.316971   53.412384
H   37.110657   43.939415   69.962257
H    6.694236   46.837135    1.970213
H   69.118141   86.806236   81.891228
H   44.398170   96.189247    0.997308
H   13.193556   80.410645   11.817631
H   16.331749   70.553146   10.518561
H    3.102498   83.178024    2.091614
H   49.164337   94.768211   99.781128
H   92.595116   32.328518   51.029514
H   97.532181   20.760368   24.491808
H   46.549988   72.452065   37.979244
H    9.787488   90.717148   48.114235
H    6.867034   29.962709   71.670708
H   47.575153   66.985985   33.554585
H   51.121044   46.200066    7.437029
H   75.532471   90.106529   65.636444
H    5.984852   50.786961   28.024837
H   54.063736   58.469215   41.059235
H   29.022572   38.871899   35.392712
H   10.876263   50.281570    9.262304
H   76.450050   22.729322   18.191898
H   13.938425   91.486183   78.758858
H    7.191867   90.899216   57.890190
H   29.956501   43.105274    6.156918
H   29.066961   35.952477   67.746017
H   70.878036   31.075996   86.105125
H   74.920357   42.557869   20.615902
H   84.377670   71.139954   57.352566
H   61.959202   23.487516   53.038280
H   46.875568   65.225319   51.185104
H   44.761635   55.405434   90.629845
H   36.826019   69.463356   89.321449
H   40.565479   66.695526   37.387169
H   70.487976   59.124687   19.568413
H   89.021713   20.878843   83.876297
H   10.268781   24.130524   41.204140
H   64.551903   40.846226   67.400002
H   96.811264   54.893757    8.402397
