100
TIME:    5.230, STEP:  5230
H   63.638832   42.403633   94.357803
H   56.035103   88.269531    7.873364
H   69.656097   50.170868   61.955372
H   82.354446   17.174339   53.489876
H   48.326416   91.965073   23.897793
H   46.920315   95.542046   96.690300
H   78.865242   14.491585   99.445816
H    8.818611   41.063046   27.992527
H   25.064552   83.450150   70.878105
H   31.917089   91.478416   12.489698
H   13.773163   76.683029   35.969585
H   56.228233   85.843651   20.651800
H   10.329849   45.322304    5.342748
H   96.122963   88.955544   55.246338
H   44.116066    2.863080   99.370087
H   91.236298   54.294144   98.904999
H    3.541571   27.894764   49.495880
H   12.907783   40.343853   18.227053
H   26.727448   97.756653   38.898319
H   51.610008   94.750038   72.415352
H   53.921104   35.554489   15.293480
H   63.785538   51.026886   73.895477
H   15.915980   52.086967   82.713364
H   33.115307   99.394257   18.647499
H   42.528717   71.395279   75.164589
H   22.705030   72.047394   98.612701
H   11.089739   25.071571    3.736400
H   91.249794    0.558437   39.649086
H   24.892662   23.598410    9.947681
H    1.535384   61.397209   99.159065
H   21.888119   91.039932   95.597984
H   95.982735    8.014417   15.096718
H   38.751408   85.830940   68.956657
H   99.080841   94.424522   51.419182
H   50.768051   63.572189   43.198105
H   27.272306   95.064354    2.983895
H   81.423767   13.001423   20.568707
H   47.825626   63.245388   91.508522
H   24.311977   67.464348   37.486084
H   70.585136   22.567951   49.520405
H   77.818436   35.636780   65.562233
H   61.577873   46.583588   48.506779
H   56.289890   94.862701   79.241859
H   45.389843    0.428113   92.097946
H    2.992334   25.543083    3.655334
H   10.612770   62.671070    4.408383
H   82.594040    9.262704   75.669243
H   56.518726   49.237274   92.180717
H   17.909378   99.302063   35.847000
H   35.566540   10.335295   17.871590
H   43.145603   64.720749    8.559537
H   59.300514   78.434906   30.722206
H   17.357182   52.334045   99.118248
H   55.574455   21.870262   62.601768
H   24.374817   16.936907   44.831745
H    0.109644    7.032270   14.585266
H   27.811295   38.637444   53.403999
H   36.618546   82.978523   78.842148
H    2.756544   59.749451    9.972660
H   13.893520   29.783298   14.856941
H   89.612732   35.352993    6.624686
H   13.293722   79.261978   58.715080
H   29.124655   50.397507   74.833649
H    2.173769   70.253174   85.145081
H   39.910225   43.132862   82.615959
H   80.058891   82.274345   55.421745
H   67.955780   29.177814   19.566780
H   19.094078   16.646532   16.226843
H   17.563795   73.991890   32.216164
H   36.345581   11.195465   90.720245
H   55.956749   39.551208   99.409004
H   42.729538   77.951355   39.537933
H   65.985565   59.607407   27.650795
H   15.077282   18.412682   92.405174
H   14.331107   36.096325   97.867035
H   49.300438   42.766937   44.016537
H   41.805134   73.245308   83.543587
H   77.695236    8.743084    3.271950
H   12.311473   38.156567   76.035637
H   43.036629   24.115326   70.352081
H   13.214727   83.388412   92.574196
H   33.739044   78.383438   49.448387
H   48.684761   94.583435   28.022375
H    9.966002   59.701584   85.737335
H   97.670982   21.744881   40.762489
H   30.922810    1.159918    4.970218
H   16.454611   23.089325   72.930084
H   40.140244   86.568542   41.353844
H   64.220810    2.974658   85.416145
H    3.935876   94.098068   11.178074
H   38.055840   55.835445   43.909832
H   65.265938   88.825577   33.179939
H   20.706392   84.447090   23.448505
H   52.726913   30.471144   79.450050
H   66.167671   81.258232   36.264988
H   25.898178   89.205109   97.312424
H   47.469322   67.819679   36.407120
H   26.062643   60.768005   72.342201
H   59.567932   59.394772    6.968979
H   64.064850   44.423008   93.917831
