100
TIME:    0.894, STEP:   894
H   56.864662   40.036903   98.327530
H   76.401985   53.217411   34.393429
H   95.124603   38.221539   12.842842
H   81.626663   95.816368   91.159904
H   87.163574   44.415565   41.464653
H   14.153305    0.240654   67.282219
H    6.116663   21.704367   60.364735
H   49.619659   65.943283   26.109741
H   31.651772    0.338830   43.813263
H   50.408943   29.220612   42.698997
H   17.097321    2.214698   53.634300
H   21.718288   68.502327   29.292681
H   86.394897    7.619135   36.272690
H   10.816107    2.320860   25.273731
H   91.375313   90.168976    7.797886
H   65.578400   33.541294   58.830551
H   52.190269   41.118637   54.751625
H   20.248505   51.225494   68.553024
H   59.185303   15.856799   10.462984
H   68.449623   86.788269   77.178520
H   11.225311   67.217682   32.979736
H   48.070423   45.279915   43.133389
H   73.807838   87.351372    6.770979
H   35.979263   47.403873   40.678802
H   97.610100   15.273579   43.158691
H   42.559757    0.972073    5.378903
H   84.988373    5.313715   17.706610
H   57.107063   98.168091   96.323685
H   30.610336   30.202349   14.912605
H   35.272533   68.713364   54.458858
H   51.269169    2.212509   38.668022
H   22.204718   27.812233   16.501991
H   33.329639    3.073412   78.335533
H   15.875781   91.793037   34.087700
H   58.550056   91.340492   79.166534
H   50.285004   54.713329   17.568205
H   65.544334   71.795753   78.909065
H   27.040436   42.591442   85.528542
H   10.528725   61.423729   56.441978
H   78.988197   28.489687    8.371740
H   74.145737   86.856819   63.406590
H   51.273552   51.982277   44.801685
H   18.941381   68.860992   66.046547
H   22.271227   27.753538   68.143806
H   79.107140   96.619217   32.609947
H   66.533623   80.010307   86.824120
H   45.519886   73.967972   35.262398
H   56.287159    4.588006   23.893553
H   91.163689   58.407181    8.811261
H   44.639828   44.356647   21.137627
H   43.476414   83.333397   62.843067
H   48.579216   80.782806   15.371864
H   27.424242   27.192444   50.948517
H   55.987316   92.617256   71.266434
H   69.589401   36.877537    7.992292
H   94.684830   11.592394   62.192932
H   52.926384   63.750984   41.014351
H   59.489441   92.460136   90.527420
H   60.783676   76.542023   42.850727
H    0.024930   96.502838   38.182091
H   16.094690   36.995872   44.691925
H   67.181335   19.624130   54.905632
H   34.872169   46.189735   72.226173
H    4.428148   46.657623    2.866262
H   67.808434   89.441765   78.818123
H   46.425423   97.829781   99.046120
H   15.841295   79.269623   10.224304
H   18.611275   68.665878    8.940970
H    1.457729   85.549194    4.161367
H   48.495888   93.108543   99.850616
H   93.642982   34.574055   51.425297
H    0.253287   21.855568   22.075697
H   48.701614   74.084541   38.825443
H   10.513782   92.805328   50.075523
H    5.276005   29.915754   69.169121
H   46.794918   64.871117   35.774944
H   48.124729   49.060173    6.853111
H   73.982071   92.264198   63.814106
H    4.403013   50.883640   27.656876
H   55.682114   60.266602   43.902222
H   28.376781   38.530499   33.420345
H    8.400230   50.066055   12.021893
H   74.361870   22.178576   15.048820
H   11.668278   88.662331   81.773048
H    8.798742   92.963226   61.089180
H   30.716091   41.893002    3.865245
H   26.862967   38.351845   66.172455
H   70.346802   33.718025   86.448036
H   74.235542   44.395287   20.885925
H   87.295181   72.498001   56.172771
H   60.608707   21.705614   52.341381
H   44.433903   62.743370   50.556435
H   42.644249   54.416733   88.076897
H   33.636345   67.461784   87.096306
H   41.135990   69.651306   36.628838
H   67.762314   60.427849   21.272896
H   91.641129   18.985029   85.774139
H   10.147616   23.849548   41.732101
H   66.123955   40.703976   70.164436
H   94.761856   55.741467   11.580805
