100
TIME:    8.750, STEP:  8750
H   25.595081   19.604666   91.135147
H   58.822525   79.014236   29.820084
H   30.175371    3.414435   20.628502
H   82.945267   72.150261   60.546829
H   16.791620   74.108337   28.456249
H   92.328857   91.728569   45.287987
H   94.383018   52.180786   74.714561
H   32.153549   45.587605    4.797154
H   38.536171   45.015900   49.306492
H   35.766518   42.022038   50.318611
H   86.351349   18.317337   96.905418
H   21.877548   62.282879   70.094551
H   85.791122   32.361366   55.555748
H   21.833632   78.105934   23.118740
H   86.883492   88.439705   30.113319
H   49.705078   46.422020    6.714154
H   20.484200   60.713932   69.935371
H   88.175674   69.063988   96.209061
H   81.549347   45.427563   24.345982
H   56.773151   19.998068   12.073236
H   45.039314   85.127106   19.754606
H    1.251366   55.699738   74.134964
H   68.917091   23.463045   82.002151
H    6.056364   41.503632   57.223896
H   16.634521   92.241043    1.160121
H    6.349720   68.153488   67.468994
H    7.556280   78.750687   73.582809
H   94.242432   64.860123   56.002754
H    1.430836   42.960201   43.554283
H   36.506187   74.276840   78.988678
H   60.425159    6.685613   17.106926
H   18.237476   10.760193   89.232765
H   86.695084   28.290333   86.066055
H   47.810776   71.837433    3.128552
H   63.192390   97.172249   57.410885
H   33.259632   70.769806   91.917915
H   19.038189   84.090584   97.931236
H    2.339556   98.821175   39.904007
H   75.732719   90.770714   96.372757
H   39.041283   93.037392   26.466005
H   37.250504   56.414009   48.490688
H   62.811554   75.916290   26.664291
H   86.589691   15.976421   33.494610
H   20.627537   59.515945   36.262852
H   97.658478   86.668297    4.872026
H   65.177086   29.804100   18.709150
H   10.100694    0.692257    9.459026
H   56.721676   85.492157    9.977728
H   20.802322    7.775937   95.432190
H    9.446394   63.914036   71.733574
H   42.900776   24.887695   45.666656
H   30.379492   51.804386   99.652779
H   90.367500   72.744202   94.685989
H   74.059570   64.444901   17.929508
H   44.107185   25.412764   74.765930
H    4.493874    3.329573   94.756134
H   50.962982   37.069069   88.185188
H   74.512878   50.557869   88.174461
H   80.371178    8.486985   39.748230
H   81.608803    0.341260   14.739769
H   11.657021   71.654419   32.177166
H   88.363304   46.498306   99.444054
H   68.099335   10.198438   33.456696
H   43.886929   89.427979   89.576187
H   79.626419   61.997089   10.418028
H   63.822578    7.285056   63.552647
H   85.539322   50.871059   89.511581
H   75.943344   17.959278   84.503204
H   93.000122   21.067131   11.447176
H    7.732943   88.134415   83.285004
H   44.176441    0.049241   57.192207
H   52.725410   61.065819   97.417892
H   36.475266   85.499931   37.400219
H   37.586697   95.632729   83.258644
H   83.967804   41.199131   64.732529
H   32.512871   68.367058    7.165928
H   61.469559   68.466553   45.925842
H   43.066349   78.584618   97.677551
H   81.107216   27.817211   15.306219
H   70.417198   32.366020   67.100914
H   82.111122   19.805124    2.958568
H   97.889633    1.216749   54.978279
H   71.332115   53.449131   63.249844
H   52.134514   60.915749   64.238945
H   26.278671    1.556474   99.539398
H   49.912121   30.455162   49.409821
H   51.547565   67.155876   40.777016
H   96.753105    4.890314    4.853967
H   37.273197    6.986658   56.627083
H   92.721054   49.278778   37.008354
H   82.108727   45.904461   18.246117
H   25.710291   53.562866    0.252464
H   46.345310   90.059013   95.655518
H   92.919174   44.025257   16.797411
H    5.307438   65.958908   17.152132
H   16.635757   50.203674   15.500294
H   68.068504   69.823326   33.968468
H   21.387789   19.410725    3.223589
H   91.883354   74.586815   12.132671
H   82.707291   54.092899   54.825550
