100
TIME:    0.216, STEP:   216
H    2.715625    2.213087   98.948257
H   95.261757   16.455917   91.625763
H   83.475616   89.443993   20.803673
H   81.512863   23.751303   28.323217
H   93.236359   90.070877   59.848534
H   24.666878    0.978562    0.136198
H   41.649700   75.923607    7.344053
H    2.909124    7.289347   88.361519
H   48.318306   65.525864   86.490730
H   68.937660   19.488121   16.147379
H   80.163239   74.933792   18.943596
H   47.597454   34.517494   77.554100
H   29.522976   48.639145    3.660689
H   44.386921    4.411289   73.678413
H   83.129982   50.728050   40.389660
H   92.838684   92.844124   15.109760
H    6.700274   96.281532   93.021294
H    5.760504   84.196472   92.057907
H   48.627762   87.414429   74.741516
H   86.802467    1.003115   30.923975
H   51.458801   34.714058   51.379135
H   83.059242   44.385033    0.862996
H   82.860115   92.865501   26.170685
H   98.972763   39.272343   91.032547
H   21.857721   69.043617   38.153397
H   45.666920   21.175026   68.926262
H   43.453007   33.497898    4.252520
H   14.315620   66.521332   73.915421
H   15.868045   68.689201   46.961456
H    9.276320   85.493698    0.560455
H   24.598574   41.412178   92.319572
H   79.395782   46.542686   79.267891
H   85.572693   52.678444   17.255941
H   87.228493   53.927551   62.651512
H   75.402809   42.592300   37.881081
H   91.335197    1.453426   19.901106
H    0.516633   96.624855   25.485119
H   55.061111   55.000820   37.683636
H   41.010029   75.897026   21.423859
H   42.848522   91.961830   55.029274
H   20.480762   63.589970   47.428028
H   12.208328   21.551111   12.948142
H   13.102012   64.795227   17.075314
H   65.566391   16.391638    1.851270
H   37.919121   23.369579   74.591125
H   75.192772   67.264702   84.165337
H   38.360828   37.393009   29.468939
H   56.250950   97.606369   81.942810
H   71.341789   14.560543   35.857590
H   30.419996   34.037052   68.556534
H   43.527325   48.790627   55.695690
H   15.630212   43.695900   59.883202
H   13.359833   23.261169   90.325050
H   71.684021    3.677855   41.347370
H   23.563560   77.440979    2.239023
H   93.836502   12.305103   85.273651
H    9.945993   83.314247   76.530800
H    9.975636   56.488121    7.991156
H    7.313171   47.895447   94.900833
H   44.765030   44.390770   57.464699
H   73.326065   68.524399   97.555328
H   91.244873   25.934860   85.581451
H   88.884041   92.423592   18.739716
H   57.872620   42.969467   21.276007
H   40.895454   43.592823   15.676496
H   88.076241   31.535145   58.957470
H   70.238487   55.828617   77.490585
H   65.445168   29.890957   76.528648
H   67.669273   34.265938   46.686016
H   34.762291   59.009155    1.276550
H   15.173483   80.707756   59.556828
H   56.156086   44.356941   72.436958
H   92.907761    7.623341   56.210987
H   25.436630   35.710690   90.371086
H   72.584885   28.951040   17.772160
H   30.764631   21.415754   81.395218
H   86.566467    7.822665   94.854675
H   42.128403   36.596943   26.368717
H   71.907310   52.868176   20.096931
H   88.932419   97.190071    2.312652
H   15.108818   31.516100   92.898743
H   57.530506   45.638199   68.718933
H   31.463146   10.862643   50.472748
H   65.029877   30.644993   43.700966
H   41.812653   35.373123   26.813580
H   46.323887   16.986193   56.783520
H   81.580864   87.647957   33.842892
H   59.432343   88.000648   93.493294
H   60.165718   82.145866   26.433678
H   47.238136    0.399630   31.933367
H   32.862186   85.094696   38.023266
H   94.268440   11.751631   37.640129
H   99.143471   34.103424   35.625420
H   68.105812   26.334204   41.382282
H   52.857395   30.381664   21.050396
H   11.762344   87.201897   56.292274
H   45.457054   80.076256   24.766609
H    7.658329   18.076782   52.579315
H   98.422478   37.781384   26.958637
H   52.655834   73.155327   76.882065
