100
TIME:    6.141, STEP:  6141
H    2.031989   58.861168   93.523758
H   30.874889   37.635990   65.316628
H   85.322250   15.712127   51.258739
H   82.507355   79.640717    3.552957
H   40.166672   64.985657   99.198441
H   32.790195   94.555092   86.910210
H   31.120865   76.007988   70.687279
H   37.215805   19.876850   44.348042
H    2.670407   95.861176   13.532409
H    7.027708    4.559364   48.162724
H   29.034164   13.338846   48.216957
H   21.455490   31.507038   55.805794
H   52.196915   90.231575   14.820976
H   51.015007   86.147591   24.572727
H   55.194588   21.488434   55.580967
H   54.607803   74.614662   23.284481
H   30.284523   88.150383   32.427803
H   32.389416   96.018173   86.646523
H   40.914463   35.976196   86.893997
H   27.068222   75.400185   34.440422
H   99.861084   44.861813   90.566200
H   51.123993   52.236252   96.315430
H    3.751375   44.677864   56.649445
H   48.470898   10.292452   50.989902
H    9.947373   99.146881   81.892555
H   18.552179   45.116753   12.945705
H   32.533272   87.203018   21.813360
H   14.382339   43.080818   69.763748
H   44.701241    6.251807   66.883789
H   36.465641   38.850182   71.580551
H   57.744141   72.730263   23.522560
H   53.503696   82.842087   30.760902
H    2.920269   19.177481   51.026733
H   37.574211   10.936683   13.040911
H   28.123123   94.706612   98.671783
H    6.464500   66.418205    0.118871
H   68.800026   79.638306   92.352211
H   10.174704   46.571430   55.793819
H   85.858673   47.614067   49.203575
H   84.779678   37.283382   21.195147
H   15.557865   66.893272   87.025002
H   82.683884   65.685074   93.468834
H   64.136749    0.325817   45.044655
H   87.220215   15.719320   81.170006
H   23.969833   89.599930   81.612045
H   98.856499   80.047012    8.109690
H   89.711227   58.806595   84.412819
H   56.567379   58.620285   48.548191
H   44.536278   23.852455   99.505905
H   54.673557   24.201426   54.153885
H   43.079922   76.769455   18.162830
H    3.574148   93.900375   70.917671
H   36.255260   57.616333   46.209629
H   34.480057    7.004455    2.802527
H   51.839592   96.772400   52.581417
H    1.244367    6.073987   83.572662
H   85.564583   12.350871   40.047722
H   68.784088   96.945518   55.377670
H   74.603806   98.240822   40.037575
H   53.775139   99.804810   88.945946
H   47.079914   92.987320   35.595089
H   80.961830   70.782516   17.492386
H   90.972878   88.231972   12.363647
H   64.732468   75.215744   60.414623
H   76.070724   70.373611   67.453590
H   24.094936   36.985680    9.287471
H   94.864151   60.670292   63.549759
H   56.164909   68.747597   59.777912
H   62.970615    8.533226   75.080597
H   54.798836   57.017914   88.801941
H   27.028675   77.567291   88.483009
H   67.612625   47.717209    6.236663
H    6.586164   14.548103    4.290573
H   95.023628   60.753956   38.275627
H   58.251881   37.396046   66.927505
H   70.837456    1.152722   82.717743
H   24.517601   94.284767   99.654564
H   20.495678   49.176010   53.585373
H   55.994747   35.480671   86.197090
H   98.365128   74.490181   91.868614
H   31.042177   92.813126   47.021900
H    2.112064   84.296036   73.246300
H    6.305912    9.817880   14.780779
H   72.639748   37.658104    2.532311
H   53.313667   64.763481   52.451279
H    9.953518   34.622787   68.232864
H   77.298225   56.852058   16.370077
H   54.793175   13.664286   31.905174
H   83.125839   52.250923   77.965340
H   23.391520   56.620258   43.742561
H   75.337669    5.028659   63.148479
H   32.670712   57.341095   50.535034
H   79.103470   11.778920   93.897537
H   40.771221   85.740547   40.877151
H   50.418114   99.655411   57.199528
H    1.142986   53.229950   50.258362
H   75.158745   20.099623   84.014633
H   26.423777   90.315460   55.599350
H   16.169769   63.321735   30.664070
H   20.652758   21.047256    6.157949
