100
TIME:    1.318, STEP:  1318
H   28.191050    1.154084   97.939346
H   64.607674   76.205864   61.139278
H    2.410277   68.726295    7.864376
H   81.697830   78.348106   67.920647
H   83.365845   78.401039   29.967949
H    7.578419   99.780205    9.271273
H   83.893715   50.336140   93.522087
H   16.294098    2.626446   87.179558
H   21.229042   59.573074   17.123308
H   38.821663   35.307884   59.303551
H   77.657883   19.274830   12.793390
H    5.534267   89.755379   99.112892
H   59.423157   81.966454   94.130699
H   89.822258    1.013647   57.541492
H   96.531685   52.296200   87.417343
H   48.530670   96.453911   23.635239
H   18.101940   69.158432   93.356483
H   29.309357   30.606476   53.853806
H   65.788536   33.645309   32.799717
H   57.007095   77.824570    6.068182
H   86.064651   25.006195   21.471848
H   88.726189   45.839546    7.029270
H   68.146828   83.903008   94.639786
H   96.585014   52.489079    9.187584
H   82.445061   81.645393   46.286804
H   40.615604   88.336868   65.635666
H   48.426567   87.689529   26.120489
H   21.332710   17.959484   10.338126
H   39.829697   68.671265   94.870445
H   51.530956   58.219467   88.166130
H   67.948128   40.236298    5.117282
H   48.976444   16.098793   77.250221
H   63.197132   72.051201   16.532804
H   33.790459   52.935860   16.226213
H   48.010872   59.289467    4.986602
H   87.149506   88.019485   16.109282
H    6.212730   56.268410   12.318454
H    9.516882   34.831005   15.449673
H   91.467697   52.372581   15.802396
H   39.052597   88.796425   41.731739
H   45.169937    1.407046   73.396042
H   13.166862   71.011787   64.721970
H   22.593542   71.403595   96.674232
H   95.196632   34.859566    9.601439
H   42.328651   79.888504   68.894974
H   61.083477   88.055611   88.523354
H   49.996937   96.838455   38.885445
H   56.309803    8.953455   50.128292
H    3.558835   23.292740   91.898178
H   53.532467   50.810200   91.482628
H   43.444065   42.399437   67.313644
H   69.185295   41.438541   87.537399
H   36.219833   29.650940   26.321877
H   46.169506   85.701118   89.976883
H   35.834137   74.048477   11.590269
H   95.215347   11.146791   47.758972
H   79.806763   51.516731   81.340157
H   27.916965   52.418999   79.606522
H   94.225380   94.456696   10.299377
H   72.043365   29.093733   26.122520
H   42.841503   17.279381   11.634750
H   52.132751   15.677530   35.719658
H   63.633339   17.275703   43.138283
H   33.543671   48.964081   91.355812
H   84.636192   55.578411   18.303614
H   20.378304   76.751411   24.115797
H   81.822739   93.930023   30.696136
H   89.322380   92.914413   29.210623
H   22.590637   55.083252   77.570381
H   57.084450   14.434258   98.957794
H   80.179482    5.723783   46.340092
H   65.290909    7.783440   53.120163
H   21.055832   53.111370   27.953068
H    1.181957   65.975372   24.875938
H   25.718353   30.519056    1.310774
H   56.819759   92.043968    7.245519
H   86.620934   12.311258   14.355568
H   93.902359   64.541420   87.228073
H   24.727587   49.641453   32.384758
H   34.888412   37.172913    7.374330
H   36.674206   42.916973   58.762264
H   40.213909   52.835098   76.566971
H    1.191741   29.254839   55.432835
H   40.836918   24.944559   43.045265
H   88.153381   66.443817   19.987007
H   20.956509   57.468868   33.309303
H   55.180962    7.523598   86.390350
H   77.172363   99.772522   82.042152
H   83.034370   20.788023   17.416534
H   49.809586   55.050812   71.331337
H   77.960518   44.599468   61.295483
H   75.805611   94.632652   58.633888
H   69.849449   67.120834   20.879045
H   74.617989   93.178947   15.685037
H   33.805790   31.671257   46.372246
H    2.782975   43.684196   99.372314
H   57.985611   43.317669   61.389740
H   11.704394   27.459656   34.948593
H   45.925468   42.531673   34.648312
H   21.093674   44.849682   70.743599
