100
TIME:    8.625, STEP:  8625
H   34.048088   31.067354   91.249588
H   62.274826   72.241241   21.938442
H   28.026743   94.421448   22.095730
H   82.924286   77.300102   67.398506
H   17.911711   64.089035   31.845131
H   94.266724   91.863991   32.908340
H    0.934677   43.739815   64.939400
H   41.978302   34.773891   16.274391
H   41.608910   57.034103   57.175259
H   39.180672   40.227222   45.424355
H   97.978546   13.288007    8.946215
H   26.648781   56.017239   78.992332
H   93.761932   39.926865   67.977661
H   28.022501   78.491219   13.605839
H   85.365242   99.605324   36.124329
H   54.730942   57.354942   17.090408
H   30.535927   52.446529   58.556129
H   85.502563   75.146523    0.542477
H   79.601944   40.183308   17.760860
H   60.140575   22.652620    3.562709
H   52.456993   97.570648   23.147303
H   89.267494   55.533798   84.779877
H   70.586021   24.479185   85.578430
H   17.670687   40.008270   66.507660
H   21.104870    2.153748    0.237412
H    6.939329   71.838486   79.231613
H   18.335184   83.946304   71.103256
H    4.789742   59.025547   51.870483
H   98.712776   31.619123   49.463249
H   31.713047   77.370560   69.051392
H   55.505154   95.476494   26.996529
H   10.345039   14.213686    0.804644
H   77.890762   37.435875   74.805069
H   42.529327   83.292969    8.394365
H   66.303276    6.636454   49.805332
H   22.393888   60.979088   92.310829
H    7.049083   88.668221   88.081688
H    7.505867    1.108460   31.083473
H   81.008446   93.494408    8.486012
H   50.814392    4.739263   16.631239
H   45.793518   52.125336   45.545742
H   73.345840   75.426102   20.282780
H   85.513947   15.226595   24.466175
H   28.608837   57.416908   24.041515
H    8.501293   91.598793   94.175346
H   66.790703   27.420391   18.201319
H    9.123416   93.894417    8.258589
H   56.714046   84.204697    2.243654
H   17.148796   18.128075    0.418058
H    6.822598   62.011456   80.473045
H   42.909359   36.955772   44.348679
H   24.304110   63.403927    7.858511
H   87.775414   72.019409    1.945482
H   76.954926   66.483856   12.413932
H   54.059731   14.458350   73.703537
H    4.338186    3.461061   99.011429
H   43.038902   40.675865   76.296684
H   83.820740   62.362450   91.394066
H   70.512093    3.204952   49.345055
H   89.858086   90.733917   18.295067
H    3.771802   77.468018   41.922764
H   92.799797   47.661789    5.099955
H   59.613049   18.728415   42.028320
H   35.302906   88.747055   92.969360
H   74.665405   71.980347   98.777191
H   71.501564   13.498960   56.161671
H   95.568161   46.549961   83.476730
H   84.577911   10.810060   78.527481
H   86.770721   30.048836   19.287193
H    5.194142   81.855423   83.550125
H   48.146587    8.554734   58.691383
H   63.018417   65.216209   88.254990
H   44.625366   91.683556   40.605518
H   40.338047    3.544154   90.685860
H   77.946304   41.015072   55.254917
H   29.557436   60.355759   15.576632
H   50.117020   79.285034   43.708549
H   37.194576   86.757607   90.772949
H   75.112419   28.184376   13.911232
H   76.547417   39.175255   77.869804
H   79.663994   18.511942   95.487411
H   88.509293    0.405291   65.435448
H   63.426086   51.358677   51.345127
H   43.535233   50.219337   75.656334
H   32.365021    9.375870   11.656546
H   52.789356   25.863697   40.729477
H   43.199100   76.244392   34.816551
H   94.742760   14.892738    6.150030
H   34.679203   13.946335   57.649422
H    3.772460   54.421944   32.540390
H   76.993217   39.155308   15.606345
H   16.461557   44.161545   97.870277
H   38.332539   86.309166   85.989075
H   80.838028   36.441639    8.369099
H    7.468822   77.155045   14.279999
H    6.311259   55.139893   21.956688
H   77.990532   62.649788   41.157265
H   21.629068   13.225671    5.733183
H   97.838097   74.047035   22.603062
H   74.942474   57.300106   66.867371
