100
TIME:    0.027, STEP:    27
H   15.496684   19.545166   99.121292
H    0.519150    6.208628   79.703674
H   80.228333   75.846352   23.022842
H   81.481140   31.538584   38.683411
H   94.929214   74.921692   64.973244
H   27.597652    1.184266   81.419609
H   51.554493   63.162205   92.563919
H   17.764151   90.938110    5.714375
H   52.964287   83.697388   98.386864
H   74.102745   16.775082    8.745821
H   97.743561   67.328918   37.148804
H   54.811558   25.043846   91.007545
H   41.544708   60.073853   22.445568
H   53.745213    4.994020   59.295876
H   80.831505   67.609329   49.475422
H    0.435851    9.377186   30.799213
H   21.895086   83.782661   75.812996
H    1.721818   93.387497   98.610153
H   45.684731   79.486557   64.783371
H   91.918526    4.966330   18.030008
H   62.674332   53.530136   56.508171
H   64.936745   44.135574   16.956400
H   85.383537   94.402626   31.578739
H   16.532978   37.005589    5.068974
H   28.616888   84.031303   36.757584
H   46.529209   26.810909   86.639244
H   59.751431   41.355114    0.502174
H   30.262207   57.699444   67.668869
H   11.758111   51.541470   55.895813
H    2.029413   90.171402   85.535301
H   17.163851   24.463434    7.275451
H   67.462158   51.764008   96.764580
H   72.260559   66.506798    0.229325
H   79.242943   71.248322   70.613991
H   80.100700   56.879196   26.372833
H   74.902672   86.606987   20.551428
H   82.390343    3.544582   10.591482
H   62.872185   58.460072   24.346987
H   49.507473   79.931618   39.539146
H   60.649464    9.655212   40.158386
H   33.396358   57.105495   42.973827
H   29.194565   13.068211    4.068940
H   11.474404   63.661846    3.423871
H   77.635559   13.224381   83.371231
H   54.312714   30.826653   58.417656
H   77.606606   63.711605   83.424171
H   36.365162   27.196941   27.853949
H   56.240856   95.659729   70.248550
H   65.816216   30.212971   43.397575
H   26.456060   31.160351   81.776382
H   43.535976   67.038338   53.713001
H    6.445676   61.234406   72.290268
H    9.439516   22.165283    1.301309
H   76.058914    6.761837   33.007099
H   38.610367   60.872639    0.635298
H   93.600021   12.504093   91.707657
H   97.964241   88.767723   58.555382
H   24.049688   74.336647   12.859558
H   92.406914   39.909897    9.410262
H   57.242271   29.863066   62.830215
H   61.403976   77.314560   12.291203
H   97.952850   27.694046   94.132248
H   76.065056    5.312018   31.705780
H   44.893578   41.941353   26.407927
H   33.392960   58.688656   98.075340
H   99.686867   40.930927   47.782314
H   85.402092   49.295116   68.365891
H   78.500633   19.081337   67.493355
H   58.249542   47.846275   58.540333
H   30.933697   49.502342    1.673989
H   21.175623   93.567116   61.823582
H   71.740013   50.629448   58.599392
H    5.230947   16.971539   61.057400
H   29.596672   47.671711    1.603934
H   63.471806   28.682116    3.444426
H   26.296011    9.302607   94.113266
H   69.407196   24.203999   91.509338
H   33.248840   48.954502   15.931112
H   62.848763   53.420444   17.989513
H   98.201309    7.483306   18.594965
H   11.410563   29.560087   81.602463
H   43.350178   44.403885   84.522766
H   19.504288    7.708005   32.471375
H   52.027878   14.472019   60.964058
H   51.016655   47.197128   45.134865
H   50.678593   10.039573   43.660282
H   68.957985    1.389802   24.830669
H   56.389816    3.132444   95.457237
H   56.243599   92.669258   27.980175
H   63.947517    8.176231   25.177084
H   25.127535   74.888535   34.031933
H   80.284355   97.537422   34.039566
H   87.016624   28.440413   21.003447
H   49.837997   14.869936   28.639530
H   56.124866   47.311665   16.707947
H   96.151642   94.665459   66.054314
H   60.459160   69.229866   35.636070
H    6.964568   16.467560   55.603096
H    7.425749   36.966679   42.789867
H   40.918316   78.008949   95.085312
