100
TIME:    9.821, STEP:  9821
H   53.167633   21.389275   90.154617
H   29.243591   37.050045   97.349907
H   48.584820   80.466225    8.056002
H   83.125031   28.026052    1.839304
H    7.194685   59.953445   99.419121
H   75.725220   90.568275   51.352806
H   38.251438   24.498926   58.468166
H   47.975067   38.242962    6.461472
H   12.208946   42.042908   81.890938
H    6.510485   57.400013   92.252602
H   86.729462   61.410324   93.738533
H   81.001427   15.966246   93.859978
H   17.497223   67.535591   49.123489
H   68.804382   74.804817    4.621647
H   99.891853   92.772705   78.607445
H    6.641104   52.748398   17.811909
H   34.360695   31.553566   67.432724
H   11.083503   16.948830   59.080750
H   98.234695   90.355545   80.777496
H   27.921062   97.253387   84.991966
H   81.484161   78.506844   90.683578
H    3.929184   57.121506   82.929428
H   54.617699   14.756466   51.360596
H    6.544987   54.315887   77.682037
H   78.329453    7.305367    9.065800
H    1.297676   36.580429   66.682915
H   15.202793   34.229168   94.827621
H    3.874712   14.850789   91.401726
H   24.719463   40.129673   92.928696
H   77.574043   47.769852   64.129890
H    2.572658    2.724365   32.372833
H   85.861343   81.167038   90.084938
H   62.136803   49.931046   82.550194
H   93.062225   73.686668   58.008080
H   36.538322   16.082436   22.570333
H   26.359777   54.657917   88.551430
H   21.761021   44.869392   82.321793
H   58.070042   79.226921   15.482345
H   30.524242   67.434105   92.584923
H   38.165089   92.773331   10.730088
H   64.055634   93.165848   73.722984
H   72.553291   80.119980   81.332024
H   95.806671   22.402969   10.854328
H   52.248142   77.494362   40.978092
H    4.738312   44.389530   96.512466
H   51.359093   50.231365   23.060251
H   18.474613   58.941730   19.743631
H   56.787045   96.523117   76.245010
H   52.105736   19.075466   52.711617
H   31.925634   80.223473   96.848213
H   45.966923   21.725258   52.134033
H   82.429413   52.423729   29.348639
H   12.579899   78.954224   32.483681
H   49.257027   46.967163   65.189827
H   58.832344   19.270056   83.868515
H    5.827803    2.202985   58.296768
H   18.861282    6.165449   90.046196
H   94.764359   49.415001   60.588890
H   64.842339   53.744484   57.527805
H   10.934938   82.662979   84.277992
H   79.220490   21.849588   48.680393
H   50.351433   36.529587   50.987343
H   40.827351   37.146469   60.029282
H   17.430191   95.262131   60.502495
H   22.134548   76.456367   10.155307
H   98.030640   54.042564   26.879023
H   99.610725   87.899506   41.220592
H    1.961984   79.210640   35.703201
H   46.380234   44.111908   44.277416
H   29.484375   41.927052   81.013443
H   10.162502   27.175396   44.347267
H   64.530510   25.505272   75.920319
H   66.644852   32.523495    9.937214
H   14.013126   27.849545   19.623056
H   35.557487   42.776150   45.936359
H   57.835052   37.006672   35.100800
H   58.739204   75.768234   64.923210
H   93.380470    8.558449   56.828468
H   32.465988   24.671345   27.260393
H   17.894585   74.022682   74.833351
H    3.077837   30.885111   66.971230
H   78.255211    8.169343   65.377831
H   39.073273   71.360146   65.246384
H   25.818577   52.563675   66.419853
H   74.130829   34.557350   95.718582
H   25.259968   69.797554   23.783421
H   23.077303   89.285133   91.846275
H   13.976471   19.191259   93.754196
H   59.498539   47.354378   47.867683
H   98.030090    5.212135   75.292282
H   25.939108    3.736397   40.863670
H    4.953447   34.112091   20.655954
H   14.998401   22.193296   78.477592
H   93.284340    8.763314   93.837608
H   86.790863   70.025032   41.760963
H    5.095943    7.912097   60.181503
H   83.057732   31.284653   72.373260
H   19.320505   72.402451   81.717918
H   40.863121   79.211647   22.425663
H   49.230682   26.612751   51.652447
