100
TIME:    5.111, STEP:  5111
H   71.686440   53.316566   94.466751
H   59.321693   81.821640    0.369956
H   67.609695   41.609390   63.352627
H   82.334473   22.077442   60.013123
H   49.392288   82.426697   27.124008
H   48.766071   95.670967   84.905785
H   85.102501    6.455985   90.139862
H   18.171776   30.768391   38.919079
H   27.989799   94.891479   78.368263
H   35.169167   89.769753    7.829462
H   24.842255   71.894775   47.431797
H   60.770447   79.878761   29.122034
H   17.923508   52.518303   17.167236
H    2.015136   89.322334   46.190056
H   42.668877   13.492467    5.090381
H   96.020920   64.702286    8.783216
H   13.110992   20.024197   38.662842
H   10.363172   46.133518   22.352087
H   24.873974   92.765030   32.629284
H   54.815796   97.277626   64.313271
H   60.982735   47.401649   18.523327
H   52.376892   50.868912   84.029434
H   17.504814   53.054787   86.117981
H   44.172596   97.970673   27.485432
H   46.784943   80.831970   74.285744
H   23.247499   75.564590    9.802988
H   21.351255   30.018253    1.375071
H    1.291055   95.003922   35.715164
H   22.305153   12.802074   15.572563
H   96.972382   64.342430   89.698769
H   17.204727   80.368500    5.012886
H   88.468971   11.302142   26.113152
H   30.368874   94.537682   58.236198
H   94.052902    5.330120   56.432594
H   53.725983   72.567642   35.952171
H   16.928171   85.743874    3.358176
H   70.009674   17.359787   11.192054
H   52.743710   65.422844   83.110466
H   29.335377   70.057304   49.018204
H   81.794044   33.708382   40.157253
H   85.951385   31.553961   62.758648
H   72.272911   41.242424   42.916851
H   55.264874   94.149094   70.645882
H   52.988041   98.430725   80.462326
H   13.314680   30.237823   93.472191
H   12.148252   60.401325    3.924596
H   81.664352    2.790834   74.527107
H   56.512371   48.011612   84.817665
H   14.431221    9.157429   40.594398
H   33.070728    8.524038   26.194290
H   43.154682   76.209290    7.305048
H   53.517204   89.476761   38.534668
H   14.888709   51.644043    6.029589
H   58.329926   23.812256   57.350487
H   33.850006    6.508131   43.819439
H   99.961227    7.157447   18.636307
H   20.267570   42.071114   42.086143
H   45.479630   94.216484   81.907211
H   93.370949   54.721512   19.108383
H   21.745991   20.636227   18.241585
H   82.106232   40.886631   15.902722
H   17.516809   80.369614   64.099808
H   21.045725   58.517746   82.993835
H   94.002541   69.604935   88.375381
H   35.186432   52.637646   71.534157
H   87.369286   88.190208   48.385536
H   77.503235   25.063675   13.821148
H   27.314186    9.840476   10.537955
H   11.632666   82.542473   39.679993
H   33.935112    5.209973   90.970825
H   59.735420   47.647842    0.836430
H   52.541191   81.900711   30.824898
H   73.744461   65.493538   30.702240
H   17.696568   25.944149   99.475883
H    8.593873   35.926548   88.846161
H   46.486862   35.139687   52.023289
H   31.000284   83.559029   81.439079
H   72.104401   16.524223   96.700218
H    6.605135   38.506107   74.708290
H   48.872131   30.597050   80.604065
H   10.886196   82.157303   85.461723
H   24.809868   77.606277   59.398949
H   41.157379   92.593323   16.689085
H    1.779032   49.518600   96.606689
H    3.465364   29.188736   52.298241
H   33.661938   96.789177   96.706421
H    8.506872   31.741592   67.255722
H   38.224579   96.096024   42.591309
H   61.751328    9.600262   86.389412
H   14.457278   98.993454    6.924316
H   33.185875   49.410252   41.396770
H   56.461140   79.875519   30.912916
H   13.078321   80.877235   14.246052
H   41.225670   23.252199   71.426048
H   68.224968   91.916954   33.530399
H   16.069275   93.904388    3.459017
H   56.915092   60.990475   43.250854
H   25.625944   59.754791   74.246971
H   65.236847   58.881809   16.936790
H   56.673641   47.476269    5.381272
