100
TIME:    7.069, STEP:  7069
H   39.274246   73.759712   92.674149
H    5.248451   87.922417   23.827923
H    1.280246   82.476402   40.362499
H   82.663116   41.408295   52.687756
H   31.854597   39.368862   74.035843
H   18.396397   93.549721   78.813339
H   82.483429   38.670704   43.258160
H   64.276833    0.161035   59.142624
H   79.858360    6.637845   55.119457
H   81.680061   17.885363   84.497688
H   42.713867   50.679050   58.826866
H   86.036682   78.023148   89.750298
H   92.982964   34.107220   22.609032
H    5.066954   83.287239   95.193382
H   66.466072   38.594902   10.955235
H   17.294395   93.448303   46.252441
H   55.660194   49.529392   16.907312
H   52.234875   50.861435   54.476746
H   55.364902   74.907562   35.783947
H    2.068466   55.692234   97.623039
H   44.792236   52.476685   65.375282
H   40.092255   53.468185   17.287598
H   91.360863   37.130501   30.098898
H   62.246872   21.394014   82.068512
H   76.756538   25.552849   88.746071
H   14.276348   17.707027   25.658201
H   52.511730   48.627930   40.228642
H   36.080177   86.396736    0.434721
H   64.879463   90.447212   23.016352
H   72.050110   15.882399   45.353508
H   94.264397   55.945831   50.102226
H   12.098167   57.199924   44.851311
H   68.288948   51.280434   34.628304
H   76.783684   25.890945   73.945755
H    5.027792   24.447517   55.136337
H   87.133980   39.103531   97.201820
H   57.807365   45.653931   65.474884
H   71.816216   29.586323   21.281464
H   46.688549   27.394171   59.273621
H   97.372948   50.407658   94.208542
H   52.135284   98.739464    8.887629
H    4.477079   69.324234   40.844883
H   72.123077    5.892756   12.075880
H   27.964268   31.295492   71.904289
H   43.472214   52.983898   61.023628
H   86.877007   97.747208   11.879831
H   96.961227    9.273927   93.319557
H   56.619076   68.178391    5.967468
H   71.662056   46.994831   62.490967
H   74.154541   38.328136   89.267555
H   43.016201   87.176941   27.943958
H   48.681797    7.787707   10.000854
H   55.505993   62.997192   92.312080
H   12.992020   91.864777   43.751175
H   77.950455   78.098701   60.475704
H    2.400190    5.097821   51.981354
H   44.395168   85.573265   28.308281
H   99.683762    9.307394   31.475248
H   47.793411   37.456333   68.797508
H   92.538216   71.135788   62.551414
H    5.618176   49.829491   63.239868
H   48.025307   62.144821   75.505112
H   53.975765   24.907356   48.727905
H   28.454861   80.270920   35.216625
H   12.902720   96.254669   53.874332
H   67.087616   90.852501   64.158295
H   20.409498   92.756470    8.353034
H   92.061440   21.821215    4.141677
H    9.219017   41.853073   16.876621
H   73.600060    3.691205   86.847839
H   97.558907   14.427110   77.353127
H   91.142693   16.893280   74.203026
H   46.079498   68.648331   80.500305
H   74.590523    2.022990   83.137909
H    2.992974   38.723904   37.277943
H   92.771538   60.630726   20.275747
H    8.798697   13.960209   16.111105
H   64.094803   88.495781    4.832967
H    0.498786   32.754841   96.548164
H   52.854385   23.937859   11.920463
H   49.202576    2.414267    2.487138
H   71.747993   90.314240   95.612083
H   65.006691   25.336706    3.158433
H   36.485615   17.068668   17.773663
H    8.127897    6.713729   62.492104
H   88.597031   68.712387   32.676147
H   39.277317   89.378578   60.620567
H   69.717979   39.405430   22.283348
H    2.383979    0.582167   70.375496
H   41.344280   18.437397   76.915482
H   13.315357   55.136223   82.746140
H    1.333315   27.135441   68.215675
H   38.589924   39.624866   65.661201
H   30.458374   42.040855    3.450832
H   34.374657   16.531250   78.524719
H   77.791992   16.584955    2.325727
H    1.498731   73.355179   30.644913
H   24.632517   36.233601   36.971664
H   71.962242   67.327858   52.935184
H   78.293434   97.233292   16.760731
