100
TIME:    8.816, STEP:  8816
H   21.131954   13.552315   91.074722
H   56.999710   82.590378   33.981709
H   31.309847    8.162570   19.853806
H   82.956345   69.431145   56.928894
H   16.200212   79.398529   26.666920
H   91.305664   91.657066   51.824440
H   90.923698   56.637619   79.875847
H   26.966080   51.297245   98.737251
H   36.913765   38.670288   45.151783
H   33.963844   42.969700   52.902779
H   80.212189   20.972755   90.547722
H   19.358337   65.591133   65.396523
H   81.582535   28.366783   48.997139
H   18.565908   77.902504   28.141552
H   87.685127   82.544258   26.939507
H   47.051422   40.649437    1.235452
H   15.176867   65.079247   75.943611
H   89.587601   65.852409   93.920975
H   82.577576   48.196529   27.822926
H   54.995152   18.596464   16.566828
H   41.122780   78.556915   17.963263
H    7.578850   55.787354   68.514450
H   68.035896   22.926523   80.113876
H   99.923981   42.293182   52.321934
H   14.274085   87.007248    1.647312
H    6.038406   66.207809   61.258106
H    1.865007   76.007401   74.892014
H   88.673279   67.940781   58.184593
H    2.866019   48.948299   40.434349
H   39.036980   72.643356   84.235565
H   63.022923   12.603859   11.885216
H   22.404774    8.936749   83.122810
H   91.343765   23.461636   92.011856
H   50.599380   65.788910    0.348215
H   61.549843   92.175117   61.426617
H   38.996967   75.939148   91.710457
H   25.368443   81.673592    3.131736
H   99.611687   97.613686   44.561249
H   72.947136   89.332603   89.976791
H   32.825081   86.858955   31.658762
H   32.739792   58.678429   50.045620
H   57.249451   76.175110   30.033730
H   87.157684   16.372448   38.261623
H   16.413410   60.624237   42.715717
H   91.933228   84.064995   10.520074
H   64.325096   31.062698   18.977285
H   10.616696    4.281771   10.092857
H   56.725704   86.171936   14.061312
H   22.731384    2.309957   92.799683
H   10.831758   64.919060   67.119133
H   42.896244   18.515648   46.362549
H   33.587170   45.679829   95.320320
H   91.736122   73.126892   90.853043
H   72.530823   63.368034   20.841732
H   38.852242   31.196676   75.326874
H    4.576077    3.260147   92.509338
H   55.146896   35.164680   94.462318
H   69.598328   44.325050   86.474510
H   85.576775   11.275842   34.681107
H   77.253181    5.414382   12.862572
H   15.820415   68.584839   27.031490
H   86.020836   45.883987   96.458061
H   72.579834    5.694650   28.930878
H   48.419292   89.787506   87.784592
H   82.245834   56.725529   16.564375
H   59.768074    4.004115   67.455086
H   80.244095   53.152599   92.697983
H   71.384293   21.734066   87.658386
H   96.289246   16.324791    7.307699
H    9.073379   91.449722   83.145020
H   42.080204   95.558662   56.400642
H   47.290703   58.874413    2.255753
H   32.172012   82.234978   35.707821
H   36.133984   91.455360   79.337074
H   87.147156   41.296314   69.736710
H   34.073341   72.596794    2.725029
H   67.463699   62.754284   47.096573
H   46.166645   74.269279    1.323023
H   84.272469   27.623348   16.042780
H   67.180443   28.770517   61.414940
H   83.403206   20.487925    6.903419
H    2.842275    1.645199   49.456963
H   75.506462   54.552891   69.535088
H   56.674934   66.563454   58.211048
H   23.065079   97.427597   93.141418
H   48.392941   32.879547   53.993042
H   55.955555   62.357140   43.924141
H   97.814568   99.609047    4.169656
H   38.642826    3.311955   56.087288
H   86.886032   46.563187   39.367439
H   84.809715   49.468014   19.639915
H   30.593622   58.526764    1.509840
H   50.576054   92.038933    0.759398
H   99.298019   48.029408   21.247446
H    4.166227   60.047009   18.668543
H   22.087082   47.597351   12.091202
H   62.829674   73.610954   30.172661
H   21.260393   22.676434    1.898523
H   88.739250   74.871819    6.604305
H   86.807114   52.399494   48.467350
