100
TIME:    1.672, STEP:  1672
H    4.252180   68.690414   97.615250
H   54.760536   95.397789   83.469536
H    8.495031   94.194893    3.708079
H   81.757248   63.763756   48.515903
H   80.195099    6.775685   20.369610
H    2.088753   99.396690   44.329685
H   65.339180   74.239815   21.205437
H   88.470390   33.251125   54.677284
H   12.527046   25.537521   94.840141
H   29.147776   40.390800   73.165001
H   44.729660   33.518879   78.693542
H   92.023773    7.499395   73.914375
H   36.906540   60.549065   58.944992
H   72.294029   99.922279   84.479973
H    0.836982   20.677383   70.402267
H   34.297424   65.491875   94.250748
H   89.641174   92.569016   25.586782
H   36.874313   13.391438   41.581345
H   71.303581   48.497040   51.448780
H   47.470551   70.305527   30.170145
H   65.057785   89.764221   11.863731
H   22.670231   46.306786   76.887733
H   63.420418   81.023949   84.511765
H   63.694603   56.734745   82.897156
H   69.783684   53.568825   48.898483
H   38.992420   77.787521   32.456139
H   17.899986   72.975540   33.145283
H   91.463638   34.483013   22.039366
H   47.526993    0.789227   78.136253
H   65.105202   49.458054   16.307816
H   81.873482   71.981567   77.104736
H   71.328308    6.318565   44.478645
H   88.131058   46.150475   48.423920
H   48.747520   20.493782    1.313170
H   39.211647   32.529884   26.541733
H   17.928654   15.827822   14.891801
H   40.165565   43.304543   40.212284
H   94.885246   28.351772   40.429440
H   75.554550   44.815727   81.873871
H    5.710085   55.656857   69.584610
H   20.978821   13.553741   81.736130
H   81.351349   86.897926   81.353531
H   25.642752   73.526428   22.243969
H   72.590889   40.793236   44.213139
H   11.622295   65.919937   99.187210
H   56.516415   94.807625   89.960182
H   53.734852   15.934979   41.910347
H   56.328709   12.598192   72.031822
H   13.905759   93.974876   77.778366
H   60.956982   56.198307   66.721642
H   43.417057    8.222502   71.046158
H   86.389427    8.589605   64.299667
H   43.563324   31.703552    5.761993
H   37.972561   79.926796    5.597895
H    7.651430    5.081002   14.594240
H   95.658279   10.774755   35.707977
H    2.250252   41.302284   15.008684
H    1.556702   18.987785   70.488602
H   22.144196    9.414224   83.123352
H   48.683170   56.304348   16.053917
H   65.171768    0.817348   84.033379
H   39.568604   12.381872   19.701180
H   87.643539   93.135048   18.852638
H   57.853622   50.889755   81.746346
H   98.685783   27.303902   51.271786
H   98.631813   59.152962   45.047039
H   53.421066    6.169214   47.786938
H   64.869286   13.160428   46.133869
H   40.235001   29.647064   55.368706
H   64.255188   32.239395   98.212372
H   68.938728   81.637672   42.094425
H   36.103184   96.034485   79.038231
H   97.973602   35.602047   18.875660
H   93.392509   43.572426    3.836661
H   42.785240   31.022757   28.147247
H   65.189171   14.731726   83.424950
H   18.761374   81.629623   20.618124
H   10.533931   41.392876    6.777285
H   41.696747   48.604343   36.333336
H   17.527634   17.892851   76.876930
H   43.601772   46.579266   79.920372
H   66.776047   55.146988   46.966141
H   23.590115   35.163574   89.149689
H   65.189949   55.236797   10.711220
H   70.916840   44.300209   85.670868
H   12.808178   70.471901   57.892036
H   78.823814   81.784897    3.270481
H   82.871063   71.430267   78.363533
H   90.380562    1.078407   14.520266
H   18.510906   40.485367   83.987312
H   92.447639   63.713070   68.771317
H    1.998058   21.256124   65.378349
H   92.563225   77.729599   48.265762
H    8.832375   14.651372   39.552979
H   27.684811   99.961182   54.507072
H   32.021957   29.705050   81.087860
H   29.886532   63.633129   41.031067
H   13.004157   30.473755   29.284355
H   29.061874   44.057629    4.996132
H   43.078232   35.756069   36.648628
