100
TIME:    1.013, STEP:  1013
H   48.817055   29.123970   98.218582
H   73.091789   59.669842   41.899929
H   97.169189   46.783016   11.445587
H   81.646637   90.913719   84.637566
H   86.097702   53.953941   38.237984
H   12.308002    0.111143   79.066734
H   99.879967   29.740171   69.670692
H   40.266495   76.238846   15.183207
H   28.726524   88.897491   36.322197
H   47.156853   30.928822   47.359238
H    6.028229    7.002817   42.172089
H   17.176075   74.467216   20.822447
H   78.824844    0.419299   24.445211
H    4.924076    1.953959   34.330013
H   92.822502   79.539307    2.077467
H   60.793777   23.132244   48.952621
H   42.622841   48.988297   65.586479
H   22.791527   45.438553   64.427536
H   61.038322   20.849329   16.732019
H   65.228401   84.293365   85.296944
H    4.163743   55.370766   29.750027
H   59.480885   45.436981   33.000340
H   72.219017   86.383553    3.366135
H   24.922882   48.831089   31.840416
H   93.353874    5.835979   44.036629
H   42.014111   97.425995   94.224762
H   74.727310    0.366886   20.068052
H   47.066620    3.722695    0.256721
H   33.197845   40.998997    9.287724
H   39.835629   65.768143   63.919155
H   55.950291   12.884333   29.251438
H   29.718481   24.524734    5.485584
H   41.712261   94.366798   89.055992
H   20.903725   80.887367   29.074553
H   55.592125   82.345039   86.413376
H   60.631409   64.061050   17.158743
H   76.958427   67.437843   88.285835
H   22.122353   40.413395   93.926598
H    5.178769   58.883430   45.036057
H   67.779289   17.349325   17.734438
H   66.012787   90.940544   66.210373
H   40.578514   57.323441   50.392521
H   19.966398   69.574600   74.642525
H   14.672575   29.747736   79.779427
H   68.784340   91.923569   42.793839
H   65.013802   82.247368   87.290779
H   46.776417   80.386810   36.279243
H   56.293514    5.813215   31.256605
H   94.642754   48.551949    4.064090
H   47.135639   46.167904   12.814926
H   43.467335   71.844856   64.097778
H   54.362526   69.740952    7.559409
H   29.892817   27.882446   44.036690
H   53.231846   90.676170   76.517715
H   60.116020   47.310192    9.002102
H   94.833725   11.467331   58.141891
H   60.470108   60.317314   52.332207
H   50.628357   81.222176   87.462357
H   70.169212   81.569962   33.714550
H   92.171616    5.649558   34.797447
H   23.601645   31.462234   35.414116
H   62.957794   18.516495   49.520889
H   42.944290   38.074944   64.062355
H   12.599733   47.304955   99.635155
H   72.531319   79.937889   89.899925
H   39.115028   91.913918    6.082136
H    6.293386   83.384216   15.969936
H   10.391011   75.471481   14.629859
H    7.388891   76.998611   96.698036
H   50.906357   99.093407   99.600037
H   89.864311   26.476824   49.998081
H   90.440750   17.906212   30.788340
H   40.942719   68.197731   35.773998
H    7.894723   85.275223   43.002998
H   11.013293   30.085077   78.189995
H   49.608494   72.497459   27.767952
H   58.929623   38.746452    8.958754
H   79.572906   84.483513   70.385498
H   10.107264   50.535007   28.983768
H   49.846146   53.785118   33.650238
H   30.705540   39.761608   40.532818
H   17.328953   50.843216    2.070650
H   81.891975   24.164602   26.382999
H   19.854673   98.845314   70.903694
H    3.004222   85.520279   49.553429
H   27.976963   46.264530   12.129158
H   34.810707   29.699577   71.846817
H   72.262466   24.190918   85.211479
H   76.705025   37.769447   19.912205
H   76.774460   67.600800   60.427181
H   65.478676   28.131262   54.854443
H   53.238697   71.693428   52.823456
H   50.279671   57.982048   97.282982
H   45.138504   74.679573   95.120308
H   39.078693   58.992157   39.363426
H   77.591217   55.728569   15.126394
H   82.195358   25.814238   78.930405
H   10.584542   24.862762   39.828239
H   60.455040   41.216938   60.196064
H    2.152162   52.684574    0.119215
