100
TIME:    6.840, STEP:  6840
H   54.760818   94.760231   92.883804
H   11.572289   75.514290    9.388755
H   97.342712   66.000954   43.051334
H   82.624680   50.842804   65.240723
H   33.905792   21.013502   80.245148
H   21.948315   93.797813   56.134968
H   94.486221   23.206844   25.350061
H   82.275780   80.348572   80.168007
H   85.487617   28.655380   69.534370
H   87.934792   14.597075   75.531410
H   64.014893   41.464680   80.885735
H   94.775833   66.544495    6.050766
H    7.592148   47.960613   45.364677
H   16.405384   83.993080   77.767494
H   63.684639   59.050316   21.967403
H   26.502651   13.477705   65.261230
H   74.074959   34.383511   96.060524
H   47.337666   62.004639   62.413963
H   51.799007   65.301834   23.720005
H    8.237587   60.554501   82.031639
H   58.381424   75.274139   71.591576
H   18.137802   53.164185   36.789078
H   94.418343   38.992943   36.650894
H   83.523582   18.654512   99.075089
H   84.947090   43.714279   87.054848
H   15.356075   24.457069   47.208809
H   72.258827   58.148048   35.684353
H   55.401703   75.707787   92.866074
H   59.900139   69.670326   33.840851
H   63.269032   21.550102   27.148632
H   85.252693   35.411797   68.219978
H   97.639160   63.526287   66.051003
H   52.158146   68.035423   13.998174
H   67.108070   46.877487   83.593414
H   10.727257   41.786049   41.202965
H   67.227165   21.166954   97.921638
H   35.844177   54.040161   47.430515
H   81.282173   33.777691    5.122206
H   56.355427   32.383171   81.465683
H   18.942238   71.846069   76.192123
H   67.786087   90.880867    3.492913
H   23.776154   68.426208   29.154613
H   70.152313    4.519073   95.534996
H   42.586010   27.451803   49.514183
H   63.335350   62.018314   41.427799
H   89.833153   93.379379   10.949484
H   95.172165   96.819839   91.121666
H   56.605099   65.819763   91.798386
H   64.967049   65.960121   71.625259
H   69.346436   34.842609    5.278631
H   43.031925    9.285448   25.530296
H   37.550823   29.038063   25.032997
H   50.755543   61.669373    5.611639
H   18.294563   95.600143   33.645767
H   96.183517   58.030632   58.527653
H    2.114971    5.338707   59.777054
H   29.878252   92.180916    6.528351
H   16.735312   30.934259   37.373642
H   29.733315   27.778973   86.377144
H    7.650240   53.534145   69.064720
H   91.172722   60.478256   81.095474
H   56.152962   64.276321   85.865601
H   38.428043   40.534096   64.431122
H   12.729805   79.023468   41.434666
H    3.813169   14.544434   32.548847
H   81.155518    2.236727   50.618027
H   38.782883   84.838470   97.296646
H    7.880184    8.723845   93.194153
H   97.805580   58.307556   31.239788
H   68.959679   92.173759   87.330048
H    4.830860   30.008072   80.099617
H    9.987924   24.513393   57.420082
H   61.010483   79.973236   86.370667
H   79.632744   16.516228   96.744568
H   91.955193   38.393307   19.916569
H   87.358925   45.953075   35.684364
H   88.000580   33.781414   12.049898
H   53.335964    3.468926   92.186684
H   89.516380   33.427486   93.993858
H   64.084946   36.412941   31.648979
H   44.721184    0.044611   88.800201
H   54.564171   88.829178   14.770374
H   50.521347   21.506994   81.350540
H   20.731106   97.472435   38.688572
H   19.278090   21.038742   84.691154
H   93.866379   60.300926   16.773758
H   23.982927    6.028840   49.700996
H   66.035027   57.731091   24.657700
H   97.631454   13.332266   72.248421
H   61.591785   27.859676   68.728424
H    3.943651   42.771774   77.910080
H   84.389633    9.912940   63.851402
H   23.910526   32.753399   47.952278
H    8.326739   28.147669   88.009735
H   38.333656   37.044319   73.262360
H   58.877548   25.627234   14.154243
H   19.675360   60.213257   43.814880
H   25.074541   24.902908   41.568367
H   82.871330   66.338982   72.116203
H   64.068291    3.110072   38.821758
