100
TIME:    1.555, STEP:  1555
H   12.164257   79.419937   97.722366
H   58.015099   89.054695   76.089195
H    6.483831   85.777306    5.081628
H   81.737610   68.584007   54.929516
H   81.243057   97.397636   23.541725
H    3.903098   99.523445   32.742336
H   71.471611   66.339958   12.055885
H   97.666359   23.129490   65.420082
H   15.403130   36.786560    2.204612
H   32.344810   38.710854   68.583977
H   55.612717   28.811100   89.964005
H   96.488754    1.634977   82.242699
H   44.348473   67.627693   70.573906
H   78.087257    0.282974   75.576790
H   99.413902   31.127956   76.025894
H   39.001633   75.725090    3.962618
H   99.047806   84.831619   14.934495
H   34.374031   19.081223   45.637497
H   69.480812   43.588417   45.285107
H   50.622459   72.790634   22.204233
H   72.000732    1.411481   15.039295
H   11.451451   46.152359   86.849586
H   64.982536   81.975502   87.859161
H   74.565163   55.331516   91.586105
H   73.968376   62.847809   48.035301
H   39.528896   81.274170   43.422211
H   27.989040   77.838638   30.823530
H    1.336122   29.021847   18.172007
H   44.982971   90.173981   83.667046
H   60.618801   52.353775    7.006949
H   77.271034   61.489487   86.363190
H   63.940830    9.550977   55.309929
H   79.890213   54.710884   37.883636
H   43.804085   31.216164    6.242020
H   42.119865   41.374153   19.417580
H    7.755693    6.636746   15.293935
H   28.944077   47.589211   30.993109
H   99.721565   30.493214   32.173420
H   80.813980   47.313332   93.087204
H   16.730162   66.610222   60.379360
H   28.974190    9.539096   78.979660
H   91.866638   81.647423   75.856659
H   24.634962   72.824814   13.792966
H   80.062279   38.832108   32.773968
H   21.771156   70.536667   89.175369
H   58.025867   92.576027   89.485298
H   52.499439    9.623351   40.910591
H   56.322460   11.393576   64.792519
H   10.486058    3.665045   82.445084
H   58.503117   54.417492   74.905357
H   43.425983   19.518404   69.812531
H   80.703316   19.446329   71.979935
H   41.136238   31.025146   12.557209
H   40.681721   81.835258    0.435286
H   16.965919   94.824310   13.601402
H   95.511887   10.897717   39.690933
H   94.832626   44.678246    3.880822
H   10.268639   30.037319   73.502151
H   12.916985    4.470564   92.105087
H   56.403606   47.311008   19.381676
H   57.791424    6.258206   93.156151
H   43.721161   13.471115   24.995422
H   79.707977    1.113503   26.879250
H   49.818977   50.253304   84.922356
H   94.042274   36.648716   40.375340
H    5.819230   64.969398   38.129086
H   62.808060    2.124332   42.138317
H   72.951241    6.468784   40.540592
H   34.403389   38.053940   62.707092
H   61.885132   26.354654   98.458740
H   72.653893   89.598228   43.497654
H   45.749935   99.917465   70.472466
H    5.602372   41.389027   21.875820
H   95.966881   50.976868   10.790321
H   37.144653   30.856279   19.277538
H   62.423267    7.233099   91.298027
H    8.138521   91.770004   18.548540
H    5.037058   49.043686    0.315613
H   36.088295   48.947117   35.028297
H   23.265518   24.264956   86.956612
H   41.312153   45.368847   72.927437
H   57.997227   54.382889   56.749466
H   16.187458   33.210480   78.005981
H   57.141155   45.224957   21.397896
H   76.613663   51.618958   97.012741
H   15.501270   66.174736   49.767235
H   71.009651   90.291748   97.691391
H   80.987595   80.797623   79.579430
H   87.952583    7.592639   15.477398
H   28.855255   45.299370   79.804405
H   87.659523   57.395863   66.300491
H   93.341209   12.456934   63.148880
H   85.056129   74.223312   39.214401
H   97.523842    7.554438   31.664707
H   29.707977   10.441574   51.818443
H   22.358246   34.325127   87.131027
H   39.173447   56.918697   47.759781
H   12.574574   29.477570   31.156666
H   34.635277   43.553288   14.796452
H   35.812149   38.761585   47.917305
