100
TIME:    2.622, STEP:  2622
H   40.006744   81.570610   96.745499
H   28.334602   46.906029   43.394917
H   24.824606   62.541153   92.558998
H   81.916702   24.624277   96.441833
H   71.686035   82.922379   94.612228
H   87.360359   98.367485   38.411289
H   15.551809   38.387939   95.496666
H   13.802269   15.438795   67.451546
H   89.174171   34.198868   35.041248
H    3.189333   54.031395   10.363208
H   56.362976   71.744431   87.185059
H   55.768005   55.117935    6.292593
H   76.476219    3.072620   64.522575
H   25.254997   96.994118   56.776447
H   12.393364   35.819305   24.734686
H   96.098816   82.399323   15.392561
H   13.261596   55.394485   12.079354
H   57.175751   67.192757    8.644203
H   86.103844   88.348953    1.500929
H   21.878128   50.132290   94.850624
H    8.683426   95.188446   86.077301
H   13.754044   47.564728   95.990784
H   50.736549   73.297661   57.332047
H   75.429291   68.128479   12.340640
H   35.805412   78.224548   55.907227
H   34.636417   49.480846   43.411415
H   35.980652   33.483242   51.997135
H   11.305529   78.825813   53.442623
H   68.183578   86.980537   33.228111
H    1.533181   25.945786   91.830437
H   19.246717   57.174595    1.934653
H   31.311745   80.068108   56.532387
H   55.048557   76.644447   34.007423
H   88.886528   33.432022   61.290207
H   15.595422   60.717041   84.389977
H    0.526647   90.456352   11.626611
H   31.283253    8.512056   15.068501
H   55.617538   10.964001    7.469491
H   34.397537   24.287241   90.221237
H   16.230688   66.721260   44.327961
H   56.055141   46.149708    4.118612
H   95.970726   29.534729   25.984667
H   33.825657   79.223297   90.863426
H   11.926958   56.716927   37.099350
H   29.216860   28.440548   80.482399
H   44.260174   12.927418   93.816078
H   62.217304   67.430939   50.627617
H   56.379444   22.379267   30.812401
H   41.672562   15.295895   39.881599
H   80.875389   70.654579    0.279541
H   43.344578   16.506338   81.062790
H   32.556202   20.436806    1.931382
H   63.270432   37.211975   50.588623
H   15.975109   64.430733   47.517609
H   32.022934   88.363647   22.654249
H   96.846939    9.776354    3.367737
H   62.473675   13.890492    5.361428
H   30.816986   29.272335   46.019608
H   97.069191   49.554974   10.190470
H   85.993881   29.323614   89.034676
H   25.098650   56.635311    9.964730
H    5.854069    3.537592   76.718170
H   52.082073   28.352892   53.678879
H   23.087004   56.057526   55.955967
H   36.393551   51.429829   39.742943
H   40.271523   11.925484    1.218414
H   77.200386   39.011921   93.651810
H   99.246132   67.492126   91.549362
H   87.582085   61.386131   95.784492
H   83.505676   80.022530   96.211945
H   38.772865   16.998648   30.697052
H   57.770416   64.506012   48.592789
H   36.032837   88.611992   94.517082
H   72.489494   83.454453   47.375298
H   88.588768   32.375500    0.162833
H   87.643242   75.619133   19.502590
H    5.015169   99.288956   37.421268
H   55.166653   79.275108   59.244717
H   87.247284   45.817089   46.933884
H   70.937508   66.155884   95.033646
H   62.192699   56.407452   36.699055
H   38.055603   61.351212   67.527443
H   83.694778   51.022034   79.632477
H   30.540287   36.529510   23.939056
H   24.660007   84.876770   93.579033
H   90.944519    5.364010   23.863003
H   42.272179   12.712173   48.570435
H   98.164185   95.370911   68.477364
H   10.096233   48.183098    6.748532
H   34.518284    1.397308   17.948483
H   31.325684   15.012673   88.833572
H   72.292526   92.697563   83.483665
H   53.516392    6.198317   21.760399
H    0.653335   72.277489    3.607123
H   11.257389   14.866356   76.337822
H   10.488082   92.191902   32.019409
H   54.480179   18.151516   86.395775
H   16.491964   38.562439   14.082062
H   83.807518   48.152706   25.417839
H    2.076355   11.355028   45.149811
