100
TIME:    0.604, STEP:   604
H   76.476479   66.631447   98.593033
H   84.468849   37.493000   16.100279
H   90.141998   17.358212   16.247917
H   81.577988    7.764715    7.055329
H   89.761078   21.170784   49.327965
H   18.650261    0.556270   38.561695
H   21.315273    2.121623   37.686359
H   72.413086   40.855297   52.737473
H   38.780525   28.221359   62.068802
H   58.334206   25.057747   31.342112
H   44.072418   90.545914   81.568810
H   32.787548   53.966042   49.935387
H    4.842553   25.164719   65.095329
H   25.175190    3.214996    3.203805
H   87.848549   16.072248   21.738222
H   77.238403   58.907887   82.902817
H   75.505852   21.940475   28.347513
H   14.051398   65.328125   78.606735
H   54.669540    3.690226   95.184692
H   76.299660   92.868286   57.394127
H   28.434326   96.086700   40.849686
H   20.263416   44.897148   67.827034
H   77.679756   89.709923   15.068499
H   62.923386   43.925785   62.217728
H    7.981761   38.272770   41.018875
H   43.889484    9.612710   32.560661
H    9.994783   17.369083   11.951834
H   81.576958   84.631866   86.739029
H   24.304642    3.891861   28.620300
H   24.153166   75.890793   31.404381
H   39.861393   76.206429   61.616325
H    3.894236   35.823784   43.348763
H   12.902351   24.290480   52.210045
H    3.622268   18.369568   46.305260
H   65.758461   13.262519   61.506477
H   25.070770   31.933176   18.566053
H   37.730564   82.415871   56.058117
H   39.025681   47.899288   65.062691
H   23.566257   67.614372   84.236313
H    6.303749   55.639431   85.555779
H   93.965530   76.904884   56.572102
H   77.337090   38.965996   31.176962
H   16.443441   67.121948   45.100365
H   40.789474   22.893728   39.788094
H    4.263329    8.061263    7.793139
H   70.237389   74.558647   85.686882
H   42.457752   58.324619   32.784370
H   56.271671    1.602103    5.950012
H   82.685295   82.425827   20.379789
H   38.557598   39.942661   41.419838
H   43.498539   11.331114   59.785358
H   34.485435    7.691922   34.410637
H   21.408388   25.510925   67.791969
H   62.702328   97.347633   58.469196
H   92.674881   11.454313    5.531412
H   94.321976   11.897169   72.065216
H   34.542519   72.118752   13.432970
H   81.083679   19.846703   97.996902
H   37.912811   64.289062   65.115250
H   19.161423   74.213867   46.430382
H   97.801041   50.481209   67.302032
H   77.473999   22.323410   68.027435
H   15.201538   65.965279   92.121193
H   84.515144   45.080093   10.740637
H   56.297401   12.603281   51.811050
H   64.240669   12.246449   81.899055
H   39.108971   69.242462   96.222763
H   38.643471   52.080795   95.077293
H   87.005333    6.386726   22.350170
H   42.621635   78.523582    0.460643
H    2.851784   54.307560   54.903385
H   24.164785   31.480049    0.843134
H   67.609848   88.430550   46.261738
H   16.896439   11.156898   67.311089
H   91.293381   29.503119   47.185474
H   39.938305   46.283806   55.287197
H   21.793903   74.194450    1.721772
H   60.357346   11.226276   47.797642
H   90.503319   51.733250   24.423271
H   69.904221   76.060127   68.886047
H   22.701656   35.530315   16.088444
H   86.641823   48.172134   36.272552
H   56.012157   17.338678   87.427948
H   91.719086   63.846653    8.261391
H   22.919897   11.102551   89.201515
H   37.391277   31.239777   83.726768
H    7.494528   59.437202   52.344173
H   65.678375   56.936256   89.461494
H   68.217476   60.542290   23.258858
H   12.934456   84.432358   45.804882
H   48.740726    6.046507   46.217113
H   22.976839   40.932304   45.031761
H   24.037392   45.728149   65.641899
H    5.606058   49.870438   67.542015
H   46.149570   95.626343   29.965054
H   43.809525   71.879875   36.251686
H   14.659882    2.342860    2.452212
H    9.082839   21.380371   46.371765
H   79.938957   39.453899   94.457954
H   76.751907   63.191036   39.512436
