100
TIME:    9.008, STEP:  9008
H    8.148089   95.945259   90.898941
H   51.696976   92.993698   46.088642
H   34.610142   21.975315   17.600143
H   82.988571   61.520988   46.403992
H   14.479753   94.788177   21.461597
H   88.329102   91.449059   70.839050
H   80.860222   69.602318   94.890495
H   11.875259   67.907455   81.109322
H   32.194038   20.209858   33.065357
H   28.719244   45.726536   60.420357
H   62.352814   28.697609   72.052605
H   12.029724   75.215157   51.729530
H   69.339371   16.746178   29.917469
H    9.059537   77.310707   42.753368
H   90.017159   65.393867   17.706596
H   39.331696   23.856468   85.297913
H   99.737129   77.779442   93.422127
H   93.695023   56.509636   87.264725
H   85.568787   56.251705   37.937672
H   49.822788   14.519072   29.639093
H   29.729225   59.443283   12.752081
H   25.986078   56.042236   52.163864
H   65.472420   21.365732   74.620712
H   82.085114   44.590057   38.061680
H    7.407264   71.781662    3.064629
H    5.132767   60.547653   43.189259
H   85.309258   68.026932   78.700607
H   72.472107   76.902695   64.531639
H    7.041032   66.368217   31.358231
H   46.399284   67.891403   99.499237
H   70.578773   29.820827   96.694809
H   34.527821    3.632334   65.348396
H    4.867596    9.414516    9.308736
H   58.711685   48.193207   92.259377
H   56.771523   77.638008   73.107605
H   55.687397   90.977234   91.106941
H   43.783257   74.642342   18.260336
H   91.675163   94.100990   58.109589
H   64.843620   85.149010   71.370346
H   14.740885   68.885323   46.765678
H   19.618414   65.266113   54.569057
H   41.068787   76.928040   39.835148
H   88.810028   17.524548   52.129299
H    4.154191   63.848358   61.487690
H   75.277954   76.491753   26.950617
H   61.847855   34.724621   19.757315
H   12.117795   14.723909   11.936729
H   56.737423   88.149475   25.941135
H   28.343201   86.407814   85.141479
H   14.861910   67.842888   53.694180
H   42.883060   99.978783   48.386963
H   42.918224   27.863106   82.716805
H   95.717567   74.240173   79.702652
H   68.083557   60.234734   29.313656
H   23.564728   48.023300   76.958710
H    4.815212    3.058182   85.973206
H   67.318680   29.624641   12.723298
H   55.301453   26.192980   81.529198
H    0.720299   19.388880   19.940985
H   64.582283   20.172649    7.401634
H   27.932470   59.655865   12.062155
H   79.206383   44.096878   87.771538
H   85.614014   92.592918   15.764862
H   61.604351   90.833405   82.572678
H   89.865952   41.390079   34.444889
H   47.973152   94.459343   78.807625
H   64.839798   59.789806    1.967647
H   58.121597   32.715218   96.837097
H    5.858357    2.528902   95.265991
H   12.972793    1.094128   82.737793
H   35.982059   82.495186   54.097908
H   31.480619   52.499413   16.328945
H   19.653458   72.736931   30.784481
H   31.907909   79.303017   67.928871
H   96.396179   41.579029   84.294327
H   38.612892   84.901482   89.805313
H   84.901199   46.135632   50.502335
H   55.185688   61.715569   11.927138
H   93.480476   27.059383   18.185846
H   57.764427   18.310801   44.873924
H   87.161995   22.474253   18.379295
H   17.249477    2.891598   33.394951
H   87.650017   57.763828   87.819267
H   69.884087   82.993141   40.675404
H   13.716446   85.415878   74.529114
H   43.973507   39.932770   67.326050
H   68.778801   48.397179   53.079414
H    0.902390   84.245766    2.179018
H   42.627201   92.621666   54.516975
H   69.911423   38.663284   46.230232
H   92.667137   59.834713   23.694603
H   44.799679   72.967194    5.167675
H   62.883671   97.798698   15.607051
H   17.853880   59.677845   34.193127
H    0.846326   42.848278   23.079920
H   37.945480   40.015320    2.173843
H   47.589439   84.629509   19.129936
H   20.889788   32.176662   98.043419
H   79.592766   75.700920   90.522667
H   98.733871   47.473225   29.970768
