100
TIME:    5.479, STEP:  5479
H   46.799721   19.569527   94.129837
H   49.158119    1.761550   23.573597
H   73.938065   68.085220   59.031704
H   82.396240    6.914906   39.840393
H   46.096146   11.923433   17.147141
H   43.058186   95.272285   21.349779
H   65.814171   31.305958   18.918016
H   89.247696   62.603962    5.129632
H   18.943657   59.509888   55.204353
H   25.113245   95.053688   22.240957
H   90.611801   86.702148   11.984837
H   46.723938   98.324806    2.928309
H   94.440628   30.265018   80.600761
H   83.793785   88.188057   74.195015
H   47.144218   80.621262   87.401855
H   81.224777   32.515762   78.236053
H   83.518471   44.363430   72.163330
H   18.232420   28.229046    9.595678
H   30.605724    8.202624   52.015881
H   44.902100   89.461220   89.368446
H   39.145088   10.765053    8.535229
H   87.657410   51.357437   52.690811
H   12.590997   50.061867   75.589417
H    9.979530    2.373019    0.154371
H   33.622833   51.648407   77.003517
H   21.569948   64.687881   75.196762
H   89.618607   14.720892    8.677299
H   70.238899   12.180885   47.880569
H   30.306862   46.189518   98.177673
H   11.082867   55.234520   18.953308
H   31.687820   13.368384   75.897896
H   11.704571    1.135295   92.045601
H   56.291515   67.612633   91.388542
H    9.601928   71.605095   40.928932
H   44.578766   44.749771   58.359764
H   48.917500   14.567322    2.200800
H    5.306775    3.881822   40.189007
H   37.534847   58.687962    9.080086
H   13.800931   62.038750   13.356585
H   47.132572   99.257149   69.111717
H   60.800751   44.179817   71.428566
H   39.199181   57.759636   60.203350
H   58.434673   96.355881   97.228401
H   29.491093    4.607677   16.443857
H   81.392662   15.719621   24.963533
H    7.399590   67.420364    5.420214
H   84.539352   22.804852   78.059090
H   56.532024   51.801895    7.587355
H   25.187202   78.678711   25.913952
H   40.788868   14.125235    0.456785
H   43.126606   40.681702   11.184474
H   71.401726   55.329807   14.375122
H   22.522518   53.777832   84.657585
H   49.808807   17.806763   73.589745
H    4.548439   38.758327   46.949932
H    0.419796    6.770347    6.108719
H   43.596062   31.452705   77.085899
H   18.077999   59.463799   72.428696
H   22.394117   70.270271   90.857307
H   97.462158   48.922970    7.774788
H    5.319773   23.773529   87.210045
H    4.457083   76.944321   47.447845
H   46.030094   33.406418   57.758972
H   19.272274   71.609573   78.385880
H   49.794464   23.245121    5.804168
H   64.762352   69.895775   70.144569
H   47.978333   37.785755   31.589153
H    1.893630   30.887777   28.130484
H   29.974661   56.100334   16.598572
H   41.389336   23.719547   90.195923
H   48.050117   22.609512   96.422646
H   22.198818   69.687576   57.769539
H   49.750565   47.291527   21.265839
H    9.596592    2.653641   77.610161
H   26.336317   36.451572   16.743389
H   55.187668   58.726479   27.262644
H   64.413658   51.663410   87.947136
H   89.393707   92.461891   17.023653
H   24.251354   37.425175   78.813026
H   30.827225   10.551522   48.900452
H   18.087236   85.964432    7.456330
H   52.425034   80.002975   28.622755
H   64.435280   98.747620   51.736568
H   27.096720   81.008835   62.993984
H   85.546974    6.169383   16.624657
H   25.191357   10.306117   22.261765
H   33.084755    4.984924   84.803329
H   44.146385   66.639526   38.769020
H   69.388046   89.110634   83.379646
H   81.921692   83.854782   20.078951
H   48.245934   69.280502   49.168255
H   83.689415    7.552729   37.923538
H   36.667831   91.916786   42.704060
H   76.791664   45.577709   96.239769
H   61.862907   58.955097   41.986942
H   46.464539   79.372162   84.451324
H   27.704851   82.109367   22.087036
H   26.976408   62.888092   68.356590
H   47.706085   60.468113   86.113243
H   79.532364   38.034252   69.931976
