200
TIME:    0.275, STEP:   275
H   10.546646   62.358837   15.938055
H   28.276241   33.389126   91.318039
H   17.404097   70.670097   47.072136
H   19.022306   77.382851   43.584454
H   14.838539   84.616318   53.155285
H   88.479980   51.865040   64.513359
H    3.866312   55.279297   50.328815
H    3.672957   90.397766   23.829979
H   88.849869   86.981514   46.865593
H    9.629131   74.408623   94.691917
H   13.413630   95.341866   94.067703
H   30.922531   42.957043   14.409971
H   12.033206   88.169456   59.857201
H    2.749306   53.354603   43.952358
H   17.932045   72.214020   42.892475
H   28.280205   24.524277   53.567982
H   85.853912    9.357721   13.732744
H   35.731052   84.849586   42.897255
H   66.189934   28.434797   42.999065
H   90.167603   79.224022   36.113949
H   58.505112   78.505424   24.236965
H   89.249840   50.152184   69.225929
H   93.957123   62.286980   48.296402
H    9.349570   88.378281   91.476334
H    4.767741   14.111644   44.161457
H   18.632120   63.889450    5.800581
H   99.573479   59.499043   50.489105
H   95.313507   71.573257    0.823365
H   12.542726   55.465889   38.133419
H   91.467812   21.701950   97.415192
H   13.315797   52.911503   16.237604
H   31.289589   64.326645   94.464828
H   26.277618    9.738660   73.606667
H   95.268181   63.616104   38.902061
H   46.308826   88.354782   33.952862
H   31.917973   49.123936   79.877823
H   87.269028   73.673576   86.217690
H   31.183657   45.660675   13.593775
H   51.774895   45.147316   45.209621
H   89.747093   39.544559   62.329193
H   80.514725    3.588837    2.686006
H   15.081408   42.372959   38.793331
H   76.071671   86.977905   51.627911
H   37.203293   64.933800   20.000099
H   29.972828   77.362999   45.626961
H   40.567257   12.927629   43.068527
H   80.633713   24.497456   96.946449
H   89.263733   65.550072   46.389420
H   88.433937   27.423962   61.191566
H   60.864899   17.959452    4.231668
H   77.375641   70.053116   26.481651
H   19.800169   36.300396   64.294212
H   53.120579   93.420609    8.386115
H   21.885687   82.922302   82.221466
H   75.717422   75.606544   89.641418
H    4.856979   71.487823   79.794312
H    5.330598   16.877907   49.279148
H   67.791061   59.393032    4.671733
H   27.442627   75.153580    7.973000
H   42.293793   95.792641   66.347221
H   50.306164   14.693546   41.213917
H   90.565544   16.507795   49.334412
H   72.411552   25.931519   83.704117
H   24.974054   65.202271    4.448947
H   71.911003   76.600845   19.360809
H   37.366772   17.920902   33.492416
H   84.867775   22.423719   86.558235
H   97.145424   91.529503   87.964493
H   17.767441    6.326222   61.536804
H   45.035492   42.240013   50.980724
H   58.449810   77.197487   74.217545
H   31.156832   22.901852   44.519829
H   78.604630   26.268185   98.323769
H    9.005610    8.195382   61.591476
H   79.571213    1.438149   65.967018
H   54.198425   17.840927   62.648762
H   95.279648   31.253164   71.650505
H   25.258883    6.607269   46.770714
H   11.796654   31.252808   34.163273
H   67.748711   90.471748   92.601776
H   44.853580   29.510513    0.614101
H   28.175413   67.960861   86.775230
H   10.863161   14.050221   89.255661
H   23.532719   63.004082   94.992279
H   37.661861   99.693954   56.790318
H   25.653284   84.549728   27.054234
H   37.423878    2.857041    1.851562
H   75.040428   17.241711   12.762313
H   66.758446   72.137718   77.293701
H   23.268826   87.615952   54.480450
H   39.775631   35.194939   80.598808
H   83.811630   88.842545   99.131546
H   48.922348   16.467363   94.733009
H   58.458405   93.176208   70.065704
H   26.011770   56.452759   69.397491
H   67.822639   28.491825   27.416050
H   79.780373   13.068598   99.836601
H    5.932522   28.982580   48.924953
H   36.224831   69.427422   53.005283
H   67.812988   98.496155   27.258951
H   11.427799   81.394104   70.587898
H   91.873802   77.186089   65.671539
H   23.904913   35.890884   30.991972
H   23.557716   68.004105   91.552254
H   25.292343   27.012775   26.222275
H   88.808716   25.059292   42.252148
H   67.316284   30.531370   56.096344
H   64.545052   35.618198   17.388237
H   73.686035   39.647854    0.825019
H    5.491058   27.572393    5.708563
H   47.655033   95.762634    0.820476
H   87.399330   64.225525   90.909836
H   56.486149   80.680809   93.174072
H   63.105614   18.642790   74.051422
H   62.682274   83.426010   25.545462
H   12.610123    4.773390   80.513329
H   31.135921    8.935545   84.588120
H   40.593540   28.719215   33.278893
H   20.191544   59.027660   81.809845
H   71.706284   47.373409   50.648396
H   40.919868   21.992016   86.372940
H   16.778915   26.650906   49.217693
H   33.080208   20.346432   25.067425
H    3.561638   66.059250   16.332525
H   75.869087    8.085521   91.655563
H   49.004620   63.310127   24.855602
H   94.516655   49.353348   69.703064
H   74.663101   87.844475   35.298176
H   92.898438   51.216751   84.092651
H   69.441628   23.983454   67.097885
H   50.021805   83.936005    4.748890
H   80.356583   86.398514   10.152371
H   92.323463   84.297577   97.635506
H   99.204369   13.900340   50.137943
H    6.155112    0.737275   54.808571
H   61.425880    1.581931   83.165970
H   68.950661   86.653709   57.081024
H   91.516884   63.128136   82.645355
H   47.228073   44.823097   71.541809
H   43.466904    7.411287   94.484970
H   52.350407   62.039402   16.040512
H   55.627045   42.074268   47.062798
H   53.880375   57.405197   98.203712
H   56.109306   25.260710   78.704414
H   41.947102   68.606300   50.213032
H   47.222538   62.578815   28.169895
H   45.559044   96.624519   47.031288
H   41.696747   72.115860   68.624168
H   66.120941   63.331036   97.596519
H   10.577661   89.056915   88.687157
H   74.986549   61.904354   51.079971
H   35.260700    6.141272   47.055508
H   77.801689   30.529881    2.235872
H   10.835113    1.946118   75.087616
H   15.000420   54.803360   61.386471
H   64.541107   43.615688   55.137753
H   59.677624   61.933144   81.170212
H   46.543674   36.098335   10.544111
H   10.779931    1.602453    1.306989
H   63.287277   55.515747   79.584229
H   54.299747   82.987457   82.485291
H   41.960812   22.874922   35.240765
H   66.725929   33.044010   37.217499
H   12.559388   21.207855   69.701294
H   58.619064   23.275972   10.168445
H   12.516713   63.325653   62.110497
H   74.297150   97.000862   52.592735
H   23.662788   32.524990   49.460011
H   94.548538   28.056389   36.774288
H   28.070187   10.195589   90.009216
H   78.696350    6.050050   35.973137
H   44.953835   64.147217   57.565594
H   38.349194   75.950333   89.439224
H   70.793877   73.705276   75.054672
H   69.811127   94.773254   97.585724
H    1.987982   47.849907   23.320324
H   35.058189   54.014500   88.372086
H    2.040198    9.234238   65.327744
H   74.706490   20.565928   68.725487
H   84.635605   54.830544   86.878738
H   80.778816   86.443649   40.905529
H   19.933624   30.148769   70.893898
H   64.023895   90.129440    6.762753
H   52.243019   25.285160   78.477898
H   85.975578   86.816322   78.252640
H   99.993156   36.519104   84.129372
H   32.570709    3.925039    0.040606
H   88.739571   68.707100   26.751207
H    5.604803   61.329483   66.943420
H   50.250034   58.082920   66.145218
H   49.492271   29.866375   79.051521
H   47.365993   85.880356   24.178583
H    4.877909   18.356688   58.607967
H   34.492069   64.927956   34.018639
H   83.693512   52.692017   21.701796
H   75.413589   10.469329   29.086855
H    9.693929   86.513771    4.648114
H   27.892311   96.710571   45.979641
H   11.446577   11.709827   76.451744
H    7.642691   33.806999   97.262535
