100
TIME:    7.756, STEP:  7756
H   92.815910   10.758931   92.045181
H   86.275223   25.149914   67.147171
H   13.089479   31.901081   32.295994
H   82.778427   13.103016   15.029488
H   25.698580   94.434944   55.407928
H    7.741658   92.805443   46.849030
H   46.477604   85.059906   96.982452
H   10.279991   59.593487   96.063103
H   62.970589   40.585678   11.873936
H   62.915871   27.749666   11.397476
H   78.810806   78.322159   92.652435
H   59.818390   12.458643   40.848091
H   49.175392   92.525803   54.336308
H   71.050529   81.169716   47.475780
H   74.810371   77.228683   77.915070
H   89.670746   33.360962   89.224884
H    0.415548   94.970612   79.447632
H   66.925461   17.431824   30.664944
H   66.063599    3.725345   71.976929
H   83.556442   41.105434   44.397133
H    4.024673   84.083008   46.731258
H    5.955613   54.380188   58.783234
H   82.188423   31.543390   10.441421
H   98.413361   29.612520   31.045444
H   52.184883   71.071335   93.819740
H   11.037167   97.456589   61.009254
H   93.270248   20.068670   53.861507
H   78.112541   18.463552   23.143957
H   79.817436   52.776844   90.542381
H   98.393356   98.878098   99.968834
H   21.302309   17.551472   95.749046
H   55.475826   38.220837   81.252312
H   16.678827    1.016992   96.518684
H    5.810794   62.931587   45.002777
H   87.930153   72.431999   96.932327
H   46.853291   92.911682   95.042366
H   23.700653   20.494040   19.607634
H   43.422142   17.012218   69.759743
H   17.687916   12.427370   92.698631
H   32.665237   86.092621   48.260925
H    5.184334   22.310476   25.072477
H   46.580559   72.018311   75.916832
H   78.035370   10.013802   61.696262
H   84.096756   42.826561   39.075947
H   83.879982   25.880650   19.811985
H   78.008568   10.848845   14.670874
H    2.329832   46.636177   99.913231
H   56.661007   75.254272   48.474865
H   91.747078   90.098518   35.083717
H   88.578857   48.784718   41.232933
H   42.969028   20.851900   35.186096
H   82.069931   44.039722   64.903717
H   69.755226   66.980652   52.414589
H   97.083435   80.658676   74.067398
H   23.250847   38.303642   66.317780
H    3.255848    4.375164   28.594254
H   87.948792   65.750313   93.647499
H   48.527756   44.429115   13.777846
H    1.973130   66.487968   16.057808
H   47.202103   23.939884   43.011497
H   48.955303   17.882034    9.677907
H   23.642342   55.750320   44.420341
H    0.614855   78.027374    1.618256
H   75.631157   84.013275   16.562504
H   40.171860   41.385593   17.851519
H   24.884354   56.699577    4.779245
H   65.290100   16.507977   41.522442
H   44.605858   61.111382   36.984253
H   43.460785   92.489647   73.790771
H   87.545082   38.207790   85.393250
H   75.744225   67.683960   69.113655
H   34.579868   94.069725   24.558210
H    1.284887   34.669086   62.888760
H   59.465435   58.541187   42.317932
H   36.084839   39.735493   89.366913
H    9.011804    4.659180   74.048164
H   71.193077   54.499840   28.294725
H   96.371307   43.576229   42.775089
H   33.441452   30.736904    4.213282
H   19.163704   86.513054   52.734840
H   62.651558    9.521737   43.548431
H   23.300858   94.769424   38.137318
H    8.458642   36.825840   68.586136
H   83.749458   75.856812   55.025677
H   74.677322   63.734982   95.895897
H   72.788986   93.944458   80.383316
H   85.160484   39.428093   93.379280
H   80.766838   84.431458   15.160294
H   16.642933   62.330498   64.756721
H   80.604492   90.172379    1.476451
H   41.430195   92.233559   97.254318
H   52.164356   78.804855   81.308678
H   82.628113   60.239269   18.787966
H   96.853767   83.720421   49.773922
H   22.495560   54.995186   94.311798
H   34.535416   89.456482   66.841408
H   46.967308   12.780520   91.133781
H   23.306444   70.224998   23.179880
H   39.234978   70.294487   95.390358
H   20.966753   79.601242   50.580753
