100
TIME:    6.456, STEP:  6456
H   80.729568   29.974077   93.235367
H   22.176292   54.706341   85.177162
H   90.739197   38.374001   47.560123
H   82.560226   66.663116   86.287598
H   37.345245   90.234299   90.657257
H   27.904369   94.213829   18.105228
H   14.611726   97.276833   95.320686
H   12.457428   47.127407   15.424829
H   94.927071   65.575302   93.704292
H   98.423073    9.082670   60.496250
H   99.733643   26.013510   17.875248
H    9.431984   47.296452   33.383385
H   32.096054   71.183342   83.520927
H   35.417854   85.176674   48.545238
H   59.020576   93.351097   40.433224
H   41.942627   47.063698   97.136230
H    4.953944    8.985847   61.103493
H   39.125751   80.690186   75.726112
H   45.819515   49.191719    3.490434
H   18.582314   68.709511   55.887108
H   81.168533   13.501682   82.015404
H   81.323349   52.654419   69.490250
H   99.545296   42.115990   47.637222
H   19.202129   14.060762   27.594400
H   98.681465   74.167404   84.218910
H   17.116232   35.804123   83.323738
H    5.370411   74.110062   28.064238
H   87.803268   57.783958   80.174667
H   51.550529   34.830486   51.993195
H   48.544422   31.054008   96.622513
H   70.141365    0.978120   98.600838
H   73.393066   74.137482    1.599820
H   25.108715   96.131126   79.404419
H   50.883461   82.068893   99.771149
H   20.284302   70.860268   17.838709
H   33.846310   91.090065   99.128670
H   99.013802   68.102661   17.172705
H   97.155220   40.806011   78.023079
H   72.563843   40.750359   18.677900
H   55.109760    7.793808   45.979435
H   94.030228   77.703133   94.446266
H   56.137482   66.920349    9.550611
H   66.847626    2.215465   67.796715
H   67.104935   21.006491   11.969537
H   96.645836   77.170273    8.567382
H   94.790184   86.055161    9.389425
H   92.172165   75.937027   87.436119
H   56.584202   61.864685   68.038620
H   53.743164   97.764809   86.941666
H   61.284924   28.997129   32.128014
H   43.058292   46.358612   21.482933
H   18.884754   64.671799   50.240028
H   42.789722   59.442810   27.913885
H   27.186165    1.864484   16.701778
H   26.758926   24.377644   55.261051
H    1.636699    5.742638   72.849319
H    5.535163    3.261156   70.006752
H   45.328278   67.197975   47.264267
H   99.448700   11.551635   15.855976
H   32.989349   24.017544   79.986595
H   66.950066   78.337051   11.036060
H   69.781868   67.850540    3.239101
H   12.357859   66.737221   90.763153
H   86.361801   76.931671   51.861423
H   88.572479   45.214497   96.787773
H    4.745094   21.326042   27.912947
H   69.591476   71.561127   78.757584
H   34.405800   86.762428   74.836731
H   78.668861   85.899353   55.324749
H   61.179489   72.861259   88.138641
H   17.025108   56.135025   84.705086
H   41.640270   37.263031   29.299541
H   86.047592   98.967621   96.214417
H   88.087822   40.818920   19.559843
H   73.439568   37.845455   90.806290
H   78.282753   21.341404   61.521278
H   53.125576   67.018456    5.239691
H   35.294949   28.577875   70.981606
H   71.100365   34.555416   89.710655
H   82.916977   57.330910   64.731010
H   37.206535   96.071945   65.849030
H   25.750376   86.338943   46.895184
H   26.231308   15.085223   44.780640
H   94.312340   64.613060   73.760674
H   37.976067   45.059250   21.915466
H    2.703104   46.194481   90.107330
H   98.336357   33.948997   31.390448
H   59.859245   88.458252   28.639145
H   89.662704   34.711937   75.389046
H   95.541214   43.659481   55.001831
H   88.228752   22.037674   69.800705
H   55.977520   81.032425   56.535973
H   99.295654   21.230938   18.256968
H   71.213875    4.851143   62.117157
H   44.972328   71.441147   64.438141
H   27.160751   40.790680   33.988297
H   50.155235   38.176147   65.898865
H   25.815752    5.902462   49.276375
H    1.164276   64.680779    4.278687
H   40.217693   12.963894   75.813988
