100
TIME:    1.214, STEP:  1214
H   35.224037   10.691311   98.034561
H   67.500618   70.567558   54.578976
H    0.622847   61.243999    9.085518
H   81.680374   82.632774   73.620842
H   84.297363   70.064980   32.787895
H    9.191147   99.892876   98.971672
H   89.344765   43.313251   85.389153
H   24.468292   93.628830   96.728020
H   23.785561   69.572220   23.669725
H   41.663826   33.814598   55.230736
H   87.331711   15.090180   22.811182
H    9.503933   84.542366    6.515561
H   66.038452   88.258568    4.467620
H   94.971794    1.334278   49.626759
H   95.266914   61.585201   92.416122
H   52.712189    5.550571   32.268051
H   26.462994   62.280746   83.887367
H   27.086884   35.663971   57.459274
H   64.168297   29.282091   27.320894
H   59.808792   80.033554   98.987450
H   92.236160   35.360016   24.294571
H   78.754021   45.702278   15.884856
H   69.535378   84.748833   97.615250
H    6.247800   51.241764   16.911713
H   86.164787   89.894173   45.519531
H   41.092472   91.436111   75.384079
H   57.395012   92.012283   24.056707
H   30.107552   13.104995    6.900506
H   37.568344   59.235477   99.786705
H   47.543041   60.793442   79.898308
H   63.857059   30.909956   13.346657
H   42.409794   18.971901   86.878029
H   55.871143   79.660454    7.163662
H   29.396294   62.466866   20.607286
H   50.595955   67.151039   98.653839
H   78.107269   79.850052   16.467131
H   96.237694   60.077003    4.123828
H   13.815237   36.734509    8.110790
H   96.142746   54.592674   25.770592
H   48.847824   98.532143   33.548817
H   52.276932   97.838264   70.945847
H   22.513786   66.344673   59.835865
H   21.697729   70.779938   89.161781
H    1.837785   33.116341   99.432869
H   51.349464   83.992264   59.995201
H   62.425213   86.071968   88.101234
H   48.898792   91.228714   37.996773
H   56.304249    7.882684   43.693356
H    0.519040   31.905716   96.046371
H   51.351254   49.227253   98.757042
H   43.452000   52.439842   66.217087
H   64.130974   51.089359   94.364304
H   34.062424   29.047913   32.362091
H   48.577648   87.397530   85.387527
H   44.113861   64.931656   10.707747
H   95.085220   11.256090   51.299377
H   73.213135   54.517586   71.448921
H   35.661316   62.240410   82.285233
H   86.022621   90.062531   18.283539
H   78.906769   21.099653   29.080528
H   36.281200   22.115501   19.743195
H   55.823914   16.645615   40.425652
H   56.578712   24.368019   50.273048
H   26.402075   48.398346   94.178932
H   80.508629   63.885113    8.618279
H   26.767220   81.921577   17.966505
H   90.166733   90.334076   25.674744
H   96.506340   86.966660   24.238821
H   17.406982   62.556030   84.092598
H   54.977821    9.203194   99.176788
H   83.481850   12.800230   47.587406
H   73.866592   11.235176   45.505356
H   27.837112   58.255352   30.619877
H    3.470923   72.556305   31.056969
H   20.704102   30.371077   93.426933
H   54.360836   85.378929   14.243226
H   77.178795   21.325327   12.515343
H   89.016251   71.341347   81.485031
H   19.742296   49.946140   31.224991
H   39.988754   42.837402   16.333862
H   34.638988   41.841045   52.546322
H   32.410259   52.155899   85.263260
H   94.610893   27.519152   45.527317
H   33.682316   16.045145   52.544533
H   93.217224   72.948578   30.068672
H   23.350368   53.648373   26.087257
H   48.235039   15.085243   81.431244
H   75.498169    8.098860   83.122841
H   80.876167   26.578276   18.267517
H   59.004166   59.329926   67.613197
H   73.704414   38.984173   59.099194
H   68.110664   86.810753   56.652626
H   63.176476   64.004135   12.833073
H   64.566475   86.870964    8.672860
H   35.603764   40.987236   43.982353
H   94.192978   47.791130    4.744160
H   66.240738   37.349285   67.370819
H   11.322543   26.574158   36.612473
H   50.879814   42.083370   43.359676
H   14.634933   47.521252   80.760201
