100
TIME:    6.092, STEP:  6092
H    5.345602   63.354729   93.568619
H   32.228035   34.980602   62.226994
H   84.479614   12.186999   51.834080
H   82.499130   81.659454    6.238902
H   40.605560   61.058090    0.527026
H   33.550213   94.608177   82.057762
H   33.688839   72.699501   66.855415
H   41.067108   15.637866   48.847210
H    3.874944    0.572324   16.616854
H    8.366243    3.855749   46.244175
H   33.592026   11.367306   52.936691
H   23.325813   29.050907   59.293724
H   55.323715   93.194633   19.689873
H   53.441231   86.298622   20.843670
H   54.599068   25.865330   57.936932
H   56.577942   78.900368   27.352051
H   34.224800   84.909187   27.967138
H   31.341543   98.402527   88.345253
H   40.151455   33.920448   84.312256
H   28.388252   76.440956   31.104273
H    2.768801   49.740055   91.896324
H   46.426315   52.171204    0.488228
H    4.405652   45.076378   58.051346
H   53.023899    9.706270   54.629238
H   11.699843    3.032875   81.530678
H   18.775549   46.565384   17.553474
H   36.758789   89.239700   20.841002
H   18.516788   40.793663   68.144272
H   43.635796    1.806202   69.200104
H   34.586720   40.062920   67.685135
H   55.815498   68.336143   27.399284
H   50.409794   84.196136   35.297081
H   99.468742   22.762423   46.612427
H   35.503883   15.427159   15.105070
H   29.341282   98.410622   95.688538
H    2.205103   62.580360    0.272970
H   64.100105   81.432739   88.491188
H   12.199890   47.468273   52.336170
H   87.926758   48.681755   53.952095
H   89.395111   41.870777   17.339918
H   18.906540   65.211739   85.870583
H   86.813324   65.492920   90.967094
H   63.714802    0.031871   41.505508
H   90.349258   14.896872   76.378868
H   28.220211   91.533432   77.419052
H   99.489037   79.112411    7.910620
H   89.328415   56.141861   83.942528
H   56.564762   58.115601   45.516346
H   43.104095   27.910492    1.460540
H   53.645443   23.455488   57.580460
H   43.083286   81.500031   17.646370
H    1.192972   98.447021   74.134193
H   35.238789   57.332214   49.055676
H   35.614662    7.804006    0.640414
H   55.740990   92.478470   52.164585
H    1.183338    6.125530   85.240738
H   82.457970   13.764829   35.387428
H   72.432770    1.572969   56.639755
H   70.739044   96.170494   43.799156
H   57.008484   96.038742   90.339622
H   43.989002   95.266251   39.415363
H   82.700935   71.238602   19.709633
H   87.646446   91.575600   15.723724
H   61.367615   74.948822   61.745121
H   74.126007   74.286972   62.890491
H   27.104912   39.421623    6.390115
H   98.795456   58.976421   61.184097
H   59.549660   65.945290   57.435429
H   60.528316   12.054054   78.153564
H   53.806290   54.553185   88.905121
H   28.584785   80.901199   89.070686
H   71.653091   49.343414    2.649095
H    9.781170   16.971710    5.547050
H   96.102531   63.854961   41.187096
H   55.889584   37.326138   63.213028
H   69.679298   98.012383   86.015015
H   20.068714   98.531593   98.788002
H   18.193569   52.380196   50.879143
H   53.645161   35.624599   85.650536
H    0.768130   77.159401   96.090019
H   30.083277   92.306198   44.093235
H   98.434402   83.978271   77.345085
H    3.206448    8.998515   10.114223
H   69.268456   33.465111    7.007608
H   55.699516   67.828224   57.201294
H   11.081394   32.822746   64.830170
H   74.025627   60.414757   14.033575
H   54.005119   17.585310   32.413223
H   82.108994   54.979210   78.366096
H   27.723768   58.636379   41.991119
H   73.332390    2.382837   62.113689
H   29.045206   53.655777   49.601555
H   75.962463   10.308606   90.108292
H   36.035786   82.767769   37.573151
H   51.265236    4.044610   56.073521
H   97.095779   55.164948   52.789261
H   79.048180   17.287783   86.832642
H   26.518358   87.890732   56.582924
H   18.504028   63.110516   34.768463
H   17.609324   22.304668   10.878356
