100
TIME:    1.472, STEP:  1472
H   17.777086   87.031479   97.798355
H   60.323891   84.554893   70.853569
H    5.057063   79.805855    6.056026
H   81.723679   72.003502   59.479343
H   81.986481   90.744820   25.792259
H    5.190234   99.613365   24.522539
H   75.821968   60.735416    5.565148
H    4.190002   15.949183   73.040489
H   17.443428   44.766647    7.429315
H   34.613075   37.519096   65.334190
H   63.333176   25.471394   97.959290
H   99.656219   97.474648   88.150826
H   49.627792   72.649284   78.823753
H   82.196983    0.538867   69.260857
H   98.404518   38.541332   80.015305
H   42.338806   82.984550   10.852155
H    5.720912   79.342697    7.377879
H   32.600327   23.117493   48.514938
H   68.187737   40.106232   40.912586
H   52.858429   74.553574   16.553202
H   76.926071    9.674576   17.292046
H    3.492736   46.042809   93.916542
H   66.090706   82.650536   90.233810
H   82.276756   54.336063   97.750061
H   76.937004   69.430855   47.422958
H   39.909473   83.747604   51.201561
H   35.146370   81.288528   29.176474
H    8.339195   25.147686   15.428496
H   43.178238   82.643494   87.590599
H   57.436138   54.408005    0.408850
H   74.006050   54.046387   92.931152
H   58.700138   11.844096   62.993660
H   74.044144   60.783653   30.406340
H   40.297203   38.822639    9.738571
H   44.182961   47.648293   14.363693
H    0.538992    0.116536   15.579209
H   20.983303   50.628761   24.453009
H    3.152010   32.012356   26.316586
H   84.545029   49.085136    1.042030
H   24.547823   74.380074   53.848759
H   34.646118    6.691136   77.024216
H   99.326202   77.922707   71.957169
H   23.920034   72.327087    7.797924
H   85.362495   37.440880   24.658712
H   28.970776   73.811783   82.072952
H   59.096676   90.992928   89.148415
H   51.623035    5.145821   40.201363
H   56.318027   10.539019   59.656948
H    8.060117   10.538910   85.755661
H   56.762341   53.154179   80.710899
H   43.432316   27.531736   68.937393
H   76.669579   27.148108   77.428329
H   39.414459   30.543884   17.377747
H   42.603603   83.189125   96.772659
H   23.573776   87.548386   12.897081
H   95.408035   10.984945   42.516449
H   89.570404   47.073158   95.986794
H   16.449093   37.875755   75.639969
H    6.371185    0.963490   98.476746
H   61.880497   40.931118   21.742393
H   52.555798   10.117961   99.627861
H   46.666992   14.243826   28.751167
H   74.078476    6.773638   32.573341
H   44.119186   49.801804   87.175423
H   90.748161   43.278103   32.645382
H   10.917952   69.095589   33.221478
H   69.467209   99.254791   38.131176
H   78.684593    1.721763   36.572712
H   30.266434   44.017792   67.912483
H   60.203880   22.180021   98.633514
H   75.289436   95.245461   44.493107
H   52.593357    2.672215   64.395897
H   11.014320   45.494320   24.004139
H   97.793144   56.229591   15.723259
H   33.143211   30.738180   12.985352
H   60.460857    1.913489   96.883202
H    0.602589   98.963608   17.080374
H    1.137564   54.471184   95.732193
H   32.109650   49.190281   34.102501
H   27.335983   28.785337   94.107155
H   39.687893   44.510174   67.966637
H   51.769314   53.840836   63.689774
H   10.935893   31.824991   70.100616
H   51.431232   38.122540   28.979042
H   80.654999   56.810890    5.058603
H   17.411755   63.126141   44.003487
H   65.466270   96.326523   93.733643
H   79.651459   87.442841   80.441902
H   86.230171   12.213864   16.156425
H   36.193733   48.714432   76.837044
H   84.262825   52.914425   64.547684
H   87.200050    6.214773   61.567680
H   79.730583   71.735947   32.793350
H   89.501961    2.519797   26.068451
H   31.143215   17.876442   49.911125
H   15.502792   37.602776   91.418060
H   45.761673   52.155468   52.533142
H   12.269828   28.770874   32.484772
H   38.589226   43.195507   21.748791
H   30.657578   40.893703   55.911324
