100
TIME:    4.428, STEP:  4428
H   17.874729   15.951052   95.092056
H   78.185066   44.811295   57.306442
H   55.867989   92.472496   71.367378
H   82.219833   50.217094   97.448616
H   55.509857   27.681231   45.642776
H   59.359783   96.410912   17.265577
H   20.899258   60.338680   36.728374
H   71.854225   71.679474    1.628958
H   44.779243   60.559250   21.359774
H   53.834526   79.962883   81.085876
H   88.373260   44.412617   13.222466
H   86.835899   45.643303   77.739357
H   61.507278   93.819710   85.033691
H   35.831932   91.427528   94.212173
H   34.362740   74.500671   37.922352
H   23.484329   24.440117   65.478455
H   68.033699   74.847763   76.486656
H   95.759254   79.365685   46.029247
H   14.235970   64.115631   96.647583
H   73.218010   11.782572   17.811411
H    1.512927   15.395565   37.060310
H   86.897018   49.962219   42.193161
H   26.623848   58.609581    5.659148
H    7.632359   89.788574   78.211624
H   71.213531   34.997192   69.241615
H   26.360998   95.751526   74.028755
H   80.247887   58.412136   87.826332
H   58.919193   63.123779   13.136603
H    7.453404   50.834621   47.857826
H   70.782516   81.246513   35.401436
H   90.324623   19.123127   59.049675
H   45.343761   30.171051   89.341927
H   82.259987   44.508415   96.706161
H   65.195068   67.922974   85.207054
H   70.703018   24.197411   94.363449
H   57.556019   32.249012    5.506854
H    4.502207   42.373520   57.374378
H   80.974159   77.918526   34.913006
H   58.167156   84.939568   15.206221
H   46.125069   97.648308   86.420349
H   32.628738    8.120648   46.667461
H   33.657730   10.588336   10.832766
H   49.381794   90.053345   21.313250
H   96.601761   86.978241   13.681478
H   72.558708   57.183266   35.026997
H   20.960415   47.374134    1.148126
H   76.328415   65.647545   67.971825
H   56.475895   40.976929   42.557457
H   94.466660   65.721649   67.841339
H   18.746029   98.129280   73.963478
H   43.206791   42.148964    0.104918
H   20.324839   52.854549   83.372009
H    0.721380   47.683777   45.698284
H   74.148277   34.958321   27.211193
H   88.230713   46.647755   38.009312
H   99.106644    7.875896   41.887238
H   76.967148   61.778648   77.127052
H   96.337784   58.717766   99.499130
H   39.503281   25.863125   71.544044
H   66.815186   68.139893   37.667732
H   39.022705   72.648338   69.153175
H   41.756248   86.726883   95.000305
H   74.678139    5.123977   29.829216
H   47.102776   65.884369    6.917622
H    8.076539    7.186613    7.929210
H   29.325935   22.143684    8.001466
H   32.302261    1.451214   80.845749
H   74.493462   70.779190   77.886604
H   77.593765   31.618484   82.516357
H   20.097994   70.859375   92.409027
H   81.423088   94.118439    9.030067
H    8.858736    4.568167   80.819695
H   18.277594   99.280861   48.215996
H   32.732143   69.168114   40.056847
H   75.661995   34.952114   37.070889
H   30.338358   91.365929   97.981857
H   68.989487   42.756962   69.360268
H   40.015820   61.185741   58.983200
H   73.850441   40.512295   67.089989
H   82.367645   67.796867   39.445000
H   97.521957   75.091354   44.639721
H   73.563972   73.145767   16.510889
H   97.954369   81.171082   51.644917
H   54.788467   91.072334   58.986641
H   36.723007   71.911751   18.507339
H   49.383152   71.704018   49.277023
H   62.890831   81.401245   34.687744
H   27.230761   50.777779   49.693733
H   47.577744   47.627922   91.975471
H   74.844467   27.095528   82.507080
H    5.234668   12.531502   26.973063
H    5.924098   28.508911   17.900255
H   69.296913   60.380447   61.428570
H   75.211288   81.824173   25.376314
H   80.032814   53.097084   17.837589
H   59.656235   20.874496   38.737114
H   11.128785   21.794262   82.530441
H   23.119513   53.939453   85.179390
H   97.773560   55.937664   74.146080
H   14.251841   65.000740   71.177597
