100
TIME:    8.597, STEP:  8597
H   35.941643   33.635063   91.275223
H   63.048141   70.724091   20.172955
H   27.545450   92.406982   22.424389
H   82.919586   78.453667   68.933174
H   18.162611   61.844715   32.604324
H   94.700806   91.894325   30.135372
H    2.402134   41.849037   62.749760
H   44.179047   32.351620   18.845345
H   42.297203   59.726181   58.937862
H   39.945442   39.825184   44.328041
H    0.583038   12.161412   11.643312
H   27.717537   54.613735   80.985435
H   95.547394   41.621536   70.760315
H   29.408808   78.577522   11.474949
H   85.025154    2.106410   37.470795
H   55.856735   59.803917   19.414734
H   32.787514   50.594631   56.007179
H   84.903992   76.509010    1.513039
H   79.165726   39.008595   16.285793
H   60.894878   23.247240    1.656362
H   54.118553    0.358031   23.907267
H   86.583107   55.496628   87.164337
H   70.959862   24.706800   86.379517
H   20.272295   39.673309   68.587067
H   22.106228    4.374359    0.030725
H    7.071402   72.663925   81.866440
H   20.749659   85.110123   70.547836
H    7.152252   57.718601   50.944855
H   98.103951   29.078825   50.786858
H   30.639484   78.063553   66.825439
H   54.403072   92.965569   29.211800
H    8.577148   14.987268    3.396723
H   75.918594   39.484520   72.282608
H   41.346283   85.859009    9.573885
H   67.000114    8.756432   48.101688
H   19.959974   58.785820   92.398842
H    4.363547   89.693611   85.875389
H    8.663116    1.620902   29.107674
H   82.190208   94.104515   11.199345
H   53.451569    7.360578   14.428250
H   47.707153   51.164673   44.886074
H   75.705521   75.316299   18.853321
H   85.272980   15.058634   22.443806
H   30.396648   56.946724   21.303936
H   10.930080   92.703224   91.779350
H   67.152153   26.886440   18.087564
H    8.904506   92.371712    7.989692
H   56.712337   83.916306    0.511211
H   16.330406   20.446953    1.535028
H    6.234867   61.585278   82.430687
H   42.911282   39.658958   44.053452
H   22.943224   66.002060    9.696580
H   87.194786   71.857056    3.571688
H   77.603485   66.940582   11.178443
H   56.289101   12.004516   73.465561
H    4.303312    3.490514   99.964615
H   41.263908   41.483788   73.633659
H   85.905701   65.006676   92.115257
H   68.303658    2.021775   51.494743
H   91.705925   88.581879   19.091454
H    2.005514   78.770264   44.105778
H   93.793571   47.922409    6.366899
H   57.712017   20.639166   43.948364
H   33.380085   88.594528   93.729431
H   73.554138   74.216553   96.169708
H   73.221657   14.890874   54.506092
H   97.814621   45.582035   82.124924
H   86.512054    9.208634   77.188919
H   85.375336   32.060738   21.043388
H    4.625451   80.448929   83.609512
H   49.035900   10.459985   59.027199
H   65.324173   66.145897   86.202499
H   46.450989   93.068687   41.323505
H   40.954350    5.316237   92.349556
H   76.597488   40.973843   53.131931
H   28.895418   58.561111   17.460669
H   47.574051   81.708374   43.211876
H   35.879299   88.588356   89.226318
H   73.769585   28.266621   13.598755
H   77.920586   40.700523   80.282036
H   79.115837   18.222269   93.813889
H   86.408096    0.223525   67.778038
H   61.654938   50.890415   48.678471
H   41.608994   47.823341   78.213829
H   33.728363   11.127419   14.370787
H   53.433857   24.835209   38.785080
H   41.329044   78.280220   33.481407
H   94.292442   17.133324    6.440370
H   34.098148   15.505302   57.878426
H    6.248082   55.574013   31.539518
H   75.847343   37.643497   15.015037
H   14.389841   42.055649   97.336647
H   36.537678   85.469200   83.823792
H   78.131851   34.742908    6.481152
H    7.952971   79.662979   13.636620
H    3.998549   56.245605   23.402916
H   80.213066   61.042915   42.767555
H   21.683115   11.840219    6.295332
H   99.171959   73.926125   24.948429
H   73.203156   58.018520   69.564575
