100
TIME:    7.983, STEP:  7983
H   77.464592   89.942131   91.837357
H   80.005844   37.451405   81.459366
H   16.991388   48.232635   29.631413
H   82.816528    3.750038    2.586498
H   23.664495   12.629903   49.252853
H    4.221194   92.559517   69.330055
H   34.581371    0.387014   14.734165
H   92.438232   79.232536   75.221748
H   57.390495   18.760094   97.585175
H   56.715767   31.009050   20.286312
H   57.695816   87.456055   70.785812
H   51.153831   23.836910   24.690113
H   34.700401   78.785126   31.778658
H   59.810677   80.470039   64.751137
H   77.567513   56.951920   66.997345
H   80.543777   13.506720   70.382111
H   82.161598    9.984976    0.112335
H   71.778168    6.386286   22.796181
H   69.600082   13.248815   83.937241
H   77.439468   36.285633   59.852364
H   90.554192   61.485340   40.570988
H   27.718325   54.681534   39.452072
H   79.157646   29.698080    3.946465
H   77.322617   32.328094   14.186484
H   44.065865   53.069199   95.496193
H    9.966869   90.764633   39.646606
H   73.696625   10.632316   58.366108
H   58.958488   29.059149   30.647295
H   84.753273   73.372269   79.811699
H    7.097348   93.259903   18.014160
H   30.236174   37.906784   77.789528
H   69.808800   31.949726   60.237770
H   32.668377   84.408379   16.968641
H   15.402337   42.128334   35.439377
H   82.280785   55.244896   10.743380
H   66.586243   10.691628   94.328835
H   45.472355   12.180185   37.494411
H   34.040588   12.857784   85.779564
H    8.105823    7.482008   70.700386
H   11.284431   64.842545   66.121521
H   89.670441   30.098707   30.420500
H   27.450294   72.908493   87.506523
H   79.988922   11.375486   78.093391
H   69.600983   46.636681   61.269894
H   64.188591   16.925137   39.237213
H   75.078239   15.177661   15.593096
H    4.104352   58.980965    2.093271
H   56.674862   77.592300   62.520351
H   98.383614   71.297310   26.028328
H   93.344971   52.239803   25.360683
H   42.953442   98.935966   37.579544
H   93.101959   22.975328   50.002686
H   74.462456   68.296875   39.231575
H   91.825470   76.955933   84.084549
H    5.176193   58.197662   68.247086
H    3.538576    4.136382   20.866638
H    2.340429   59.200371   15.237311
H   31.624701   22.991632    7.930612
H   19.876423   76.079079   98.630905
H   32.223137   41.388500   36.555077
H   63.274426    7.325762   91.978889
H   15.585670   53.637436   34.148605
H   16.026009   62.537506   86.052185
H   91.218010   85.249832   10.399163
H   49.182793   23.255037   38.991333
H   10.940182   45.414696   18.201618
H   47.077728   24.355957   52.481731
H   28.925484   74.093498   47.836166
H   54.775108   76.178871   59.554237
H   92.155327   49.608707   84.911789
H   68.536171   52.239120   66.391151
H   15.887023   86.532616   41.196697
H   86.484283   23.440695   57.067936
H   54.468983   44.175304   28.830313
H   47.019882   40.069744    6.578123
H   14.378444   19.207825   58.773643
H   91.809288   34.851746   32.320534
H    7.035467   28.734081   55.312115
H   44.326271   30.070133    6.746578
H    8.031783   74.147484   33.178535
H   67.095543   11.870156   57.115921
H   40.334267   96.241516   19.146748
H   22.816732   40.622105   90.203369
H   99.367485   95.281494   34.293430
H   63.624512   49.535358   73.890724
H   67.565659    2.281932   96.146820
H    0.321299   22.923347    4.203530
H   84.417625   66.267578   12.806679
H   21.354492   49.691292   62.900154
H   60.535252   80.834122    9.590878
H   50.719959    4.491251    2.048215
H   68.960060   95.877655   85.634895
H   97.179306   67.049950   36.342224
H   18.792311   97.492271   65.080208
H   18.570271   34.661270   99.528198
H   53.284668   80.492310   55.116631
H   28.949053   25.806908   78.078926
H   22.868280   81.457924   18.622458
H   28.421165   71.274727   76.377861
H   35.065929   73.775223   28.712399
