100
TIME:    2.123, STEP:  2123
H   73.752594   27.331314   97.202347
H   42.215172   19.850054   11.918205
H   16.247282   26.640785   98.414268
H   81.832947   45.183128   23.793919
H   76.155533   42.925327    8.141972
H   95.096321   98.908089   88.993523
H   41.703739    4.691854   56.474220
H   53.022682   72.267731   13.266628
H    1.440561   82.175537   66.453072
H   16.824347   46.866493   90.823479
H    2.778739   51.665958   35.251560
H   74.812607   30.105501   41.811180
H    8.218923   33.263069   14.120298
H   49.962868   98.532173   18.800945
H    6.323125   80.392456   48.722443
H   16.163445   26.043892   56.814224
H   53.381424   22.394386   66.647018
H   46.512154   91.459007   25.945423
H   78.329811   67.417694   75.209518
H   35.320885   60.727360   60.876350
H   38.294800   44.866451   99.622849
H   65.914429   46.902298   38.485199
H   57.398918   77.355995   71.608551
H   21.791847   62.143772   49.402351
H   53.652946   17.801117   52.225792
H   36.924465   64.347534   90.183372
H   79.010612   54.227955   42.094952
H   53.408722   55.534176   36.946598
H   57.333435   41.706886   56.816704
H   82.398949   38.295914   52.160793
H   99.614540   12.425905   41.418346
H   99.804840   93.857307    2.727335
H   19.898556   13.153641   89.053558
H   67.802986   79.162521   82.312836
H   28.000721   98.437469   54.003212
H   57.141277   51.257542   13.341695
H   83.422119   26.787886   75.749451
H   76.242683   20.097157   72.254814
H   55.462044   35.158875   38.577415
H   63.229580   13.434806    5.066977
H   90.157967   29.028994   92.361496
H   40.818054    7.138107    2.542197
H   29.527479   76.230942   54.819077
H   43.790916   48.352798   88.309616
H   72.500282   48.126896   37.781807
H   50.697926    3.409748   91.790718
H   58.315060   40.294159   45.834518
H   56.352795   17.241629   99.937172
H   27.087683   56.621616   59.788757
H   70.413567   63.062817   35.179012
H   43.382648   64.681587   75.801422
H    8.307039   66.741470   34.691128
H   52.919014   34.318604   79.569786
H   27.529560   72.570244   25.498091
H   71.748947   44.618748   18.420790
H   96.222580   10.300777   20.354874
H   30.840746   28.288963   57.902428
H   67.973969   76.396332   58.872269
H   57.712334   28.471113   48.499908
H   18.923199   90.968307    3.227247
H   93.620773   79.841988   48.869305
H   23.562645    8.183167   99.294083
H   18.234207   62.380669   87.912033
H   88.822021   53.343086   69.503777
H   16.586857   91.283417   93.271927
H   70.926033   36.732338   71.713676
H   17.236311   21.760965   69.560684
H   33.715767   38.954346   67.694275
H   62.714119   97.241096   27.081421
H   73.394104   54.924965   97.262695
H   54.617882   50.950920   36.685154
H   98.916626   81.066757   12.057398
H   68.568039   13.294971    7.310940
H   83.469078   15.031512   77.032356
H   64.528099   31.664476   62.335796
H   75.848946   43.637337   53.077831
H   59.710457   42.539597   28.595751
H   31.722729   11.902464   31.685352
H   63.316162   47.282810   41.364143
H   95.409340   93.330734   38.022774
H   52.427570   51.245068    6.875796
H    0.613481   58.092361    9.253309
H   52.125141   42.692169   32.105045
H   96.212715   93.829445   69.517273
H   48.957291   16.088623   41.951340
H    2.427344   87.036186   89.210716
H    8.945105   48.993530   24.776258
H   90.131271   35.321915   73.670204
H   99.739693   75.967079   10.830807
H   78.637131   21.928825    0.111152
H   10.904572   88.067413   78.295609
H   35.368633   55.174206   73.973610
H   21.499577   91.245285   83.156052
H   52.424450   42.008533   69.960503
H   19.886108   59.565140   64.870934
H   69.272675   11.896696   57.793259
H   94.088913   89.515251   15.093857
H   14.660069   34.313751   22.067158
H    7.578547   46.001713   67.215927
H   71.086807   24.171867   93.210236
