200
TIME:    0.076, STEP:    76
H    4.431762   63.019276   12.535278
H   26.502546   30.483757   83.239433
H   21.575108   61.959900   37.270317
H   12.314404   75.056892   48.788254
H   16.951458   79.572693   56.016426
H   94.953796   57.266212   70.404167
H    0.983203   55.420494   46.477016
H   99.213539   81.804474   30.893635
H   80.768227   89.964874   51.720196
H   16.634335   77.196129    2.541106
H    6.477318   91.090767   87.779114
H   30.099640   37.645447    4.927965
H    7.148997   81.565071   68.013237
H   12.155621   52.515011   34.363094
H   27.539907   70.682106   43.382111
H   34.080677   32.723583   57.860832
H   76.492386    0.037628   23.394505
H   40.456604   75.283096   46.440090
H   59.568851   35.639080   40.069603
H   89.534492   81.956871   43.828175
H   56.116905   68.571518   33.354053
H   93.680092   42.545753   76.894608
H   99.916252   63.733871   53.071297
H    5.159772   86.605110   92.107674
H   96.118217    6.108002   51.262310
H   18.796850   55.058552   12.373083
H   95.720161   55.506046   42.487930
H   90.746613   63.364021    0.299747
H    4.161273   61.514595   39.298676
H    0.460431   16.370996    4.298763
H   13.575607   44.597569   15.994305
H   34.908337   59.662582   89.565437
H   31.085915    5.456627   71.175949
H    1.854561   63.398994   35.423752
H   55.858616   96.577621   35.466557
H   38.418358   53.661224   77.595894
H   81.557373   77.968704   84.723732
H   41.027195   40.513050   22.541199
H   59.139923   52.273220   40.786201
H   91.655533   40.362896   70.102631
H   80.456192   12.886439   96.080559
H    5.176374   46.545868   44.694008
H   79.654739   91.549355   44.238590
H   37.646622   55.269310   12.882926
H   23.173727   71.291519   38.445641
H   43.367668   18.106644   40.904263
H   76.883636   34.246895   92.583000
H   94.108467   65.553108   53.543411
H   80.737930   34.975735   61.048092
H   67.985825   17.061407   12.650888
H   82.109543   72.571892   34.368198
H   27.407358   32.875225   60.015076
H   47.754326   99.115562    5.782616
H   24.847412   78.722824   79.274544
H   84.140671   80.032242   96.077278
H    7.408018   76.390251   73.277985
H    5.898519   16.124855   51.413807
H   65.616928   54.766926    8.263444
H   31.641726   71.309372    3.159959
H   46.896366   96.910072   70.025940
H   50.950661   18.576090   47.028053
H   86.990067   16.036379   47.809330
H   66.929153   21.809092   90.417816
H   20.152473   64.918358    0.005882
H   68.712051   73.634186   11.223261
H   45.172852   10.189739   29.915421
H   92.301125   26.621300   82.446815
H   98.259819   91.077065   84.024635
H   10.689125    3.637023   64.055580
H   46.181011   38.771572   50.991352
H   58.537109   73.755615   68.894562
H   36.749363   28.132601   45.912823
H   72.288712   22.827831    4.987082
H    2.522484   12.569459   55.798595
H   77.148087   98.216591   75.323990
H   49.168465   24.866627   63.949142
H   96.120758   23.844866   74.465340
H   32.629574    2.983574   53.575508
H   10.283718   22.386610   38.570751
H   70.747253   91.581589    2.039264
H   36.407558   32.873718    3.567950
H   19.425362   71.539375   92.927177
H   11.639556   11.867358   95.078148
H   30.022097   56.496864   88.506317
H   44.748291   97.589661   62.429855
H   20.046768   91.512421   31.196777
H   28.504923    2.442369    1.395351
H   76.695320   24.648111    5.256502
H   60.671371   71.642769   76.569496
H   24.265556   78.696236   56.669765
H   48.117355   33.477039   81.483948
H   85.197792   87.096558   94.789352
H   39.468967   18.711716    0.400615
H   67.382202    0.325647   64.601524
H   20.969284   59.144615   61.109367
H   76.063698   24.042595   36.772449
H   77.080925   19.951582   91.266083
H   11.403154   25.890285   47.040806
H   40.734032   71.420883   52.300056
H   64.352898   95.262283   27.210367
H    2.549215   75.891968   61.217033
H   84.473854   74.175400   66.769234
H   19.779829   43.163300   28.210918
H   13.995401   67.636688   83.649765
H   25.556139   29.627960   19.770473
H   80.930519   34.802387   51.568886
H   57.889477   28.060419   57.022476
H   65.717140   27.977608   25.083105
H   68.628746   42.159798   91.202354
H   99.098602   30.346994    4.734606
H   45.036812   97.491920    0.680465
H   79.408783   59.220650   88.643089
H   59.942444   78.371552   97.502602
H   63.779716   22.932983   79.183105
H   69.323097   75.139404   32.522984
H   20.731319   10.595118   71.535919
H   39.317768    6.133363   82.268234
H   41.603176   18.924229   37.256706
H   12.634078   51.556355   91.645065
H   66.454659   43.401669   43.224915
H   38.842903   20.669621   92.893822
H   25.365376   31.365070   43.364082
H   28.282537   28.739315   19.164091
H    6.493575   73.220833   25.046898
H   81.822899   13.010937   98.237274
H   41.713985   57.864925   28.697912
H   99.463112   48.424179   77.388443
H   79.015923   86.283714   33.617474
H   90.449501   58.420086   88.627663
H   59.796188   24.926666   63.707634
H   41.988747   91.041412   97.143997
H   87.994896   84.424789    5.459514
H   92.973274   74.615700   96.155212
H    8.962335    8.798073   47.688248
H   96.324387    4.335466   63.952988
H   66.726089    1.837329   86.097710
H   68.621201   86.146614   47.174446
H   89.819481   69.340919   85.789650
H   42.026550   42.040146   71.588875
H   43.359108   16.955591    0.014440
H   42.498486   67.891998    9.612432
H   64.788162   36.027840   42.423786
H   60.277519   53.742420    4.915775
H   65.227913   32.464401   75.406776
H   32.593166   75.206131   43.705814
H   39.931145   59.149849   37.700706
H   40.852470   97.495995   48.456165
H   47.130562   79.523399   69.765892
H   60.800999   71.638962   99.574799
H    4.208932   86.844223   96.126869
H   82.000862   58.524731   52.582279
H   26.883989   11.647551   53.291718
H   68.557068   37.970821    9.222031
H    5.574568   97.377975   80.005226
H    7.109307   49.547939   57.785942
H   58.633598   43.122257   49.015411
H   57.594585   55.965664   78.813889
H   43.714417   39.291214    5.881904
H   19.887800    2.352278    8.686700
H   65.517830   63.635345   71.947433
H   52.345001   91.072136   87.776390
H   51.304119   23.906193   36.964737
H   58.159969   41.720047   37.300243
H    5.254900   15.361814   78.215637
H   60.524467   16.523558    8.213129
H    9.088126   69.656837   63.198322
H   77.723839    0.219512   50.483128
H   23.488949   23.470909   41.231098
H   91.844536   28.703543   37.244186
H   18.988777   11.697328   92.250153
H   82.498047    3.683479   35.989838
H   51.828468   71.538055   56.954498
H   34.504227   84.501114   95.038528
H   73.241295   78.475616   70.445267
H   79.060303   96.270248    6.942195
H   95.843735   46.774986   23.129404
H   37.102512   47.798027   80.047523
H    0.276509    9.044456   62.783154
H   79.795662   25.192034   71.052963
H   94.101891   52.695885   84.071495
H   84.411987   79.312431   45.532394
H   15.919756   29.905849   63.629078
H   73.185013   90.335922    2.824143
H   47.909935   24.916605   71.156898
H   83.402145   95.447571   79.072495
H   95.827080   34.839920   83.133400
H   25.641768    7.333792   95.631607
H   98.299988   60.278111   19.788136
H   11.367699   60.442066   64.669083
H   46.631287   59.165432   63.631001
H   39.985752   36.450264   80.472603
H   48.997353   80.472351   26.713301
H    0.457652   13.622405   54.049423
H   37.968861   56.985321   30.007994
H   90.522598   61.580608   22.352745
H   74.927750    9.981022   31.813251
H    8.371154   81.087547   97.931351
H   33.675812    0.665509   51.591850
H   14.100287   11.153009   85.351723
H    9.718311   40.548786    0.027270
