100
TIME:    4.818, STEP:  4818
H   91.501137   80.186226   94.735001
H   67.413887   65.945740   81.896484
H   62.571709   20.530056   66.791115
H   82.285294   34.149590   76.072884
H   52.016663   58.941452   35.067978
H   53.310665   95.988396   55.889507
H    0.459739   86.671951   67.226883
H   41.200996    5.420842   65.822121
H   35.192299   23.062454   96.810417
H   43.176414   85.562706   96.355957
H   52.096405   60.105213   75.654800
H   71.952629   65.192101   49.978279
H   36.620499   70.236183   46.281250
H   16.522366   90.225441   23.891817
H   39.105629   39.663940   19.174973
H    7.802152   90.329056   33.105408
H   36.672310    0.644981   11.989897
H    4.097695   60.388744   32.508739
H   20.310379   80.474731   17.193758
H   62.709038    3.500368   44.364449
H   78.369774   76.570587   26.475807
H   24.286697   50.479950    8.981033
H   21.416786   55.437737   94.500778
H   71.397079   94.465546   49.246941
H   57.264557    4.067245   72.121864
H   24.583158   84.224579   37.355350
H   46.617653   42.198833   95.562538
H   26.013268   81.327667   26.029123
H   15.934220   86.218834   29.422062
H   85.737198   71.594109   66.405769
H    5.672851   54.094303   28.194115
H   69.968697   19.396896   53.237648
H    9.730257   15.974554   31.840445
H   81.673187   32.181702   68.776543
H   61.008957   94.716110   18.111343
H   91.458450   62.795124    4.279847
H   41.907822   28.090885   88.104965
H   64.853096   70.783363   62.433071
H   41.703915   76.441643   77.412415
H    9.392050   61.139130   17.104166
H    5.975958   21.501310   55.855694
H   98.606071   28.091825   29.153414
H   52.741093   92.392059   49.482529
H   71.697128   93.512817   51.814232
H   38.729908   41.797142   68.399803
H   15.928894   54.812794    2.733540
H   79.375290   86.856651   71.714958
H   56.496723   44.993805   66.688469
H    5.867286   33.422832   52.283371
H   26.925579    4.064390   46.686317
H   43.177036    4.496357    4.216267
H   39.277626   16.664614   57.770393
H    8.811181   49.945129   23.046667
H   65.114769   28.593803   44.420860
H   57.178772   80.828377   41.326954
H   99.594620    7.465654   28.610718
H    1.693099   50.525444   14.219454
H   67.297256   21.887064   89.453964
H   70.261253   42.341797   41.602699
H   41.080074   98.114716   26.575203
H   63.623840   54.511471   38.746407
H   27.914831   83.096817   77.355804
H    1.153885   78.511276    3.085740
H   73.883827   68.008850   96.328979
H   23.556391   76.039032   44.248707
H    5.368523    2.756056   31.061087
H    1.010875   14.933961   99.674484
H   47.553612   93.083267   96.530861
H   97.029495    3.595569   58.057320
H   27.999338   90.473633   91.587799
H   69.039207   67.583252    4.351441
H   76.700470   91.624756    9.372760
H   92.848297   79.987953   38.215462
H   24.145733   44.487263   16.884315
H   94.466927   35.508526   66.635101
H   39.559319   16.360918   71.738266
H    4.397719    8.953732   76.257393
H   58.338726   35.683041   80.520302
H   92.554207   39.366741   71.440117
H   63.241364   46.555561    5.846263
H    5.152782   79.126083   67.949501
H    2.824912   75.692764   83.899071
H   22.623575   87.693298   88.785645
H   81.620178   24.445875   23.367363
H   17.732477   47.516884   80.701393
H   40.406178   86.027901   76.359695
H   88.938042   53.045074   53.284393
H   33.507858   19.553854   45.638176
H   55.671005   25.913404   88.785774
H   40.362751   11.048851   96.450104
H   21.195122   33.590237   35.209148
H   34.782108   57.838821   25.331091
H   94.296761   72.084999   91.587875
H   12.905290    5.479510   51.670864
H   73.290413   18.162163   26.798199
H   91.868607    5.474535   18.593224
H   80.172325   44.175701   60.101395
H   24.550711   57.260071   78.936867
H   79.194763   57.618801   41.479385
H   38.475147   54.993961   33.606983
