100
TIME:    9.880, STEP:  9880
H   49.177643   15.978885   90.100601
H   27.614330   40.247349    1.069886
H   49.598972   84.710991    7.363358
H   83.134933   25.595102   98.605362
H    6.666002   64.682556   97.819344
H   74.810547   90.504356   57.195999
H   35.159466   28.483065   63.082043
H   43.337784   43.347034    1.044218
H   10.758614   36.370316   78.177330
H    4.898779   58.247166   94.562691
H   81.241425   63.784332   88.055138
H   78.749855   18.923405   89.660225
H   13.734932   63.964233   43.260490
H   65.883011   74.622963    9.111736
H    0.608557   87.502533   75.769798
H    4.268727   47.588058   12.914294
H   29.616280   35.455780   72.803726
H   12.345229   14.077950   57.035789
H   99.153870   92.830383   83.887924
H   26.331638   96.000214   89.008965
H   77.983017   72.633492   89.082001
H    9.585571   57.199829   77.905029
H   53.829765   14.276999   49.673195
H    1.063024   55.021698   73.300430
H   76.219223    2.626221    9.501305
H    1.019352   34.841110   61.130726
H   10.115150   31.776407   95.997971
H   98.896492   17.604710   93.351707
H   26.002346   45.482670   90.139664
H   79.836418   46.309616   68.820290
H    4.894788    8.014956   27.704941
H   89.586655   79.536652   84.623009
H   66.292641   45.614258   87.865379
H   95.555069   68.279655   55.522438
H   35.069984   11.615303   26.160154
H   31.488382   59.279446   88.365974
H   27.419884   42.708748   86.970779
H   55.631664   78.147499   19.645638
H   28.033649   66.148521   86.867317
H   32.608181   87.250183   15.372098
H   60.023331   95.190552   75.112999
H   67.581108   80.352249   84.342522
H   96.314423   22.757000   15.115862
H   48.480968   78.484657   46.746563
H   99.615753   42.054234    1.558344
H   50.597916   51.356701   23.299948
H   18.936001   62.150738   20.310125
H   56.790646   97.130798   79.895599
H   53.830399   14.188986   50.357269
H   33.163956   81.121941   92.723183
H   46.295521   16.054016   52.244766
H   85.296768   46.948746   25.475458
H   13.803701   79.296326   29.057003
H   47.890869   46.004326   67.793404
H   54.134743   24.440523   84.369965
H    5.901287    2.140923   56.288269
H   22.601448    4.462985   95.657570
H   90.371048   43.843239   59.069237
H   69.495827   56.237778   52.998104
H    7.041615   87.197632   82.599892
H   82.942200   19.105795   44.080471
H   48.257408   35.980423   48.317596
H   44.837597   33.128120   55.987076
H   21.481625   95.583527   58.900467
H   24.476372   71.744362   15.649758
H   94.406158   51.109489   30.367563
H   94.877113   89.939514   44.069042
H   97.886421   82.584846   38.523743
H   49.320961   39.872543   40.576862
H   30.682632   44.890285   80.888306
H    8.288706   23.160648   43.639656
H   59.672165   23.546288   80.245209
H   62.798004   29.605089    8.424313
H   12.714489   24.115456   16.117636
H   38.399635   42.863026   50.409794
H   59.230019   40.788250   31.131016
H   64.097603   70.661911   65.969322
H   96.152397    4.700750   60.086990
H   35.295082   24.498043   27.918940
H   15.001307   70.808723   69.750435
H    4.232769   31.495493   70.497581
H   82.682732    8.552407   60.441986
H   42.805336   72.346840   70.864960
H   29.877663   57.612381   61.031097
H   71.258072   30.866699   89.999176
H   23.901913   71.964500   27.880543
H   27.017778   84.995354   94.659615
H   14.925241   14.470063   93.142914
H   60.722904   44.069298   47.385139
H   92.813934    2.784561   77.401611
H   28.353628    6.922107   42.109642
H    9.318850   38.549515   21.779940
H   18.780399   23.963675   83.040154
H   98.653542   12.317800   98.327248
H   85.770859   64.740456   43.116768
H    9.969131    5.582370   57.134094
H   78.374535   34.670517   68.980148
H   19.206621   75.322021   80.533165
H   38.052483   79.466423   17.483639
H   52.895226   25.098724   45.968601
