100
TIME:    0.633, STEP:   633
H   74.515297   63.971992   98.566483
H   83.662163   39.065441   17.929594
H   90.640259   19.444511   15.907410
H   81.582855    6.569841    5.465713
H   89.501328   23.495262   48.541634
H   18.200565    0.524707   41.433773
H   19.795380    4.079901   39.954197
H   70.133743   43.364079   50.074699
H   38.067650   25.433136   60.243248
H   57.541679   25.474033   32.477798
H   41.374908   91.712799   78.775276
H   31.680622   55.419670   47.871101
H    2.997889   23.410187   62.212990
H   23.739262    3.125583    5.410794
H   88.201225   13.481990   20.344221
H   76.072403   56.371227   80.495590
H   73.174294   23.858292   30.987829
H   14.671071   63.917862   77.601364
H   55.121117    4.906865   96.712662
H   75.514656   92.260284   59.372566
H   26.713425   93.199799   40.062691
H   23.044117   44.935425   65.357857
H   77.292564   89.474068   14.238747
H   60.228973   44.273594   60.063835
H    6.944666   35.972851   41.233047
H   43.756512    8.748664   29.842485
H    7.494078   16.163589   12.527311
H   79.129906   85.985489   87.697495
H   24.935211    6.522939   27.249531
H   25.265070   75.173050   33.709805
H   41.002171   78.807030   59.321495
H    5.725238   35.022629   40.664085
H   14.945120   22.168779   54.822594
H    4.847620   15.711890   45.083504
H   65.037621   11.070294   63.272293
H   27.592274   34.211193   18.466269
H   40.511929   81.353859   58.343212
H   37.827156   47.368504   67.109276
H   22.262527   66.995308   81.456940
H    3.572279   52.924442   87.837334
H   91.983551   77.900078   57.255550
H   74.730736   40.267624   32.539433
H   16.693235   67.295853   47.194962
H   38.937592   23.379709   42.623665
H    1.747811    6.917111   10.274817
H   69.867012   75.103813   85.800606
H   42.763966   59.889095   33.032173
H   56.273220    1.900690    7.744342
H   83.533134   80.023911   19.222971
H   39.165821   40.384060   39.391617
H   43.496326    8.531275   60.091129
H   35.894814    5.000911   32.506760
H   22.009974   25.679077   66.107796
H   62.030827   96.874596   59.748920
H   90.366333   13.996614    5.777500
H   94.358261   11.866692   71.077988
H   36.380905   71.281975   16.191154
H   78.924255   17.108040   97.249954
H   40.199898   65.514359   62.888897
H   17.247810   76.442764   45.605553
H   99.630356   49.132675   65.040833
H   76.444733   22.053482   66.715408
H   17.168606   63.987724   90.131691
H   86.506416   45.237846    9.953199
H   57.448578   10.287045   54.511879
H   62.459145   10.804768   83.613762
H   36.782280   70.245178   97.622849
H   36.640251   53.739304   96.463661
H   88.450554    4.302971   20.531254
H   43.209061   79.982079    0.399660
H    1.930848   52.334209   54.555576
H   21.773600   30.517601    2.966397
H   65.719025   86.995949   45.518108
H   16.258125    9.321665   65.587532
H   92.691696   29.544382   49.383839
H   40.623966   48.142548   53.335972
H   24.426918   71.681023    2.234901
H   61.719818    9.330032   49.399288
H   91.893227   51.648289   24.746632
H   68.482010   74.480827   66.387665
H   23.269169   35.830334   17.821625
H   88.817619   48.361526   33.847404
H   57.847004   17.822668   90.190063
H   93.713898   66.328224    5.612556
H   21.507753    9.288558   86.390282
H   36.723759   32.305027   85.740608
H    9.431372   57.328667   53.727001
H   66.145218   54.614433   89.160149
H   68.819283   58.927589   23.021564
H   10.370472   83.238922   46.841671
H   49.927525    7.612393   46.829540
H   25.122545   43.113411   45.584229
H   25.898014   46.597008   67.885399
H    8.409073   51.629616   69.497444
H   45.648212   93.028839   30.631355
H   46.204803   70.734673   34.753807
H   12.358027    4.007079    0.784370
H    9.189317   21.627289   45.907799
H   78.557457   39.578907   92.028603
H   78.552902   62.446079   36.719345
