100
TIME:    8.045, STEP:  8045
H   73.271721   84.256401   91.780594
H   78.293503   40.811283   85.368423
H   18.057108   52.693237   28.903667
H   82.826935    1.195480   99.188057
H   23.108931   17.599476   47.571732
H    3.259658   92.492348   75.469887
H   31.332130    4.573710   19.582645
H   87.565155   84.596611   69.529396
H   55.866417   12.798892   93.682739
H   55.022346   31.899279   22.714100
H   51.928726   89.950775   64.813431
H   48.787300   26.944668   20.277050
H   30.746880   75.032166   25.617304
H   56.740761   80.278938   69.469063
H   78.320564   51.413773   64.015411
H   78.050949    8.083872   65.235626
H   77.175941   14.085726    5.756444
H   73.103577    3.369408   20.647003
H   70.565994   15.849965   87.203934
H   75.768753   34.969212   64.073616
H   86.875023   55.312870   38.888447
H   33.662327   54.763840   34.172195
H   78.329857   29.194075    2.172513
H   71.562149   33.069794    9.581729
H   41.848335   48.152130   95.954079
H    9.674541   88.936874   33.811874
H   68.350525    8.054935   59.596439
H   53.727333   31.953100   32.696747
H   86.101387   78.997452   76.880852
H    9.474640   91.725418   22.942818
H   32.676327   43.466217   72.884285
H   73.723534   30.236912   54.498116
H   37.035793   79.872093   22.554090
H   18.022144   36.446388   32.827347
H   80.737785   50.550621   14.515615
H   71.975861   15.547914   94.133949
H   51.418720    9.909441   42.379787
H   31.478176   11.723122   90.155022
H    5.488651    6.131292   64.692055
H    5.444733   59.038155   70.999329
H   85.433105   32.225891   31.881193
H   22.225288   73.151627   90.671989
H   80.522491   11.747400   82.571968
H   65.641876   47.677376   67.331940
H   58.810783   14.479063   44.542633
H   74.277885   16.359982   15.844980
H    4.589022   62.352669    2.688718
H   56.678646   78.230881   66.356560
H    0.196194   66.162178   23.555130
H   94.646729   53.183483   21.025669
H   42.949184   92.950340   38.233261
H   96.115112   17.222193   45.932800
H   75.748131   68.656372   35.630928
H   90.389374   75.944611   86.820511
H    0.239553   63.631271   68.774033
H    3.615797    4.071164   18.756012
H    6.270879   57.411400   21.134026
H   27.008238   17.136324    6.333570
H   24.766293   78.698677   93.871353
H   28.131966   46.154202   34.791649
H   67.185379    4.442572   87.144600
H   13.385170   53.060349   31.343166
H   20.235199   58.306793   81.800659
H   95.475212   85.587570    8.715795
H   51.643929   18.303202   44.765045
H    7.131641   42.332481   21.867542
H   42.103424   26.499458   55.475018
H   24.642738   77.639275   50.800125
H   57.865364   71.723946   55.665520
H   93.414513   52.722614   84.780289
H   66.567451   48.020638   65.647560
H   10.781573   84.474022   45.741024
H   82.441833   20.373854   55.478107
H   53.104313   40.251583   25.146650
H   50.006546   40.161037   11.278902
H   15.844222   23.181450   54.602058
H   97.440147   29.485306   33.420311
H    9.948005   24.680279   58.736324
H   47.299217   29.888020    7.438492
H    4.991372   70.770103   27.837166
H   68.309319   12.511575   60.821579
H   44.986443   96.643585   13.959820
H   26.738325   41.658970   96.107635
H    3.632997    0.586927   28.630878
H   60.605682   45.657047   67.880501
H   66.139023    4.559299    0.452280
H    4.462170   18.415443    7.159979
H   85.414757   61.306259   12.163841
H   22.641350   46.239174   62.393074
H   55.053394   78.283585   11.807106
H   53.257252    7.838949    3.357600
H   73.547432    0.540692   86.816505
H    1.153622   68.909874   41.136780
H   24.784323    1.253736   69.260780
H   17.498165   29.107513    0.952859
H   58.405609   78.043945   51.914268
H   24.027964   29.364746   74.513283
H   22.748606   84.525948   17.377699
H   25.467613   71.542458   71.185020
H   38.916805   72.183975   22.739544
