100
TIME:    0.063, STEP:    63
H   13.062182   16.243774   99.088333
H   99.517723    8.160519   81.974548
H   80.846863   78.436378   22.600143
H   81.487183   30.055292   36.709991
H   94.606766   77.807251   63.997108
H   27.039410    1.145084   84.984673
H   49.667866   65.593025   95.379166
H   14.934622   94.052734    2.408932
H   52.079338   80.236145   96.120934
H   73.118919   17.291851   10.155642
H   94.394928   68.777466   33.681244
H   53.437443   26.848351   88.444984
H   39.254883   57.895813   18.867458
H   51.962681    4.883023   62.035591
H   81.269310   64.393631   47.744801
H   98.988953    6.227798   27.810658
H   19.000875   86.163399   79.090767
H    2.491084   91.636826   97.362106
H   46.245308   80.996628   66.680161
H   90.944038    4.211432   20.486002
H   60.538040   49.946121   55.531212
H   68.388649   44.183090   13.890987
H   84.902885   94.109840   30.548634
H   13.188190   37.437351    2.395221
H   27.329428   81.176506   37.023453
H   46.364964   25.737408   83.265343
H   56.646969   39.858501    1.216525
H   27.224762   59.379803   68.858688
H   12.540956   54.807705   54.194031
H    3.409776   89.280411   88.397240
H   18.579988   27.691767    4.426731
H   69.735229   50.769470   93.431877
H   74.796204   63.872826    3.472492
H   80.764000   67.949127   69.097328
H   79.205864   54.157883   28.564880
H   78.032677   89.434868   20.427557
H   85.842796    2.226669   13.428495
H   61.384361   57.801167   26.887300
H   47.888912   79.163124   36.088615
H   57.258808    6.284950   42.990936
H   30.936245   58.340633   43.822247
H   25.959091   14.683956    5.760217
H   11.784425   63.877728    6.024163
H   75.336670   13.827668   86.891251
H   51.190125   29.406258   61.498497
H   77.146828   64.388481   83.565346
H   36.745289   29.139050   28.161566
H   56.242779   96.030518   72.476028
H   66.868706   27.231556   41.961388
H   27.211096   31.708294   79.258316
H   43.534328   63.562775   54.090656
H    8.195111   57.893738   69.927109
H   10.186243   22.374023   99.210518
H   75.225601    6.174412   34.595722
H   35.744308   64.028732    0.940769
H   93.645065   12.466190   90.482132
H    0.246633   87.728966   61.979271
H   21.368887   70.936928   11.932243
H   95.246330   41.430954    6.646514
H   54.865654   32.630249   61.808212
H   63.674850   75.640244    9.484403
H   96.675140   27.358963   92.503525
H   78.506767    2.857020   29.236053
H   47.365776   42.137184   25.430418
H   34.822006   55.813259    1.427878
H   97.475319   39.141254   49.910915
H   82.513786   50.539593   70.103928
H   76.013878   21.140312   69.214363
H   60.043884   45.259544   56.282368
H   31.663052   51.313164    1.598286
H   20.032358   91.117714   61.391819
H   68.771507   49.434685   61.235287
H    2.883615   15.190929   60.134274
H   28.804283   45.393421   99.464333
H   65.207565   28.733339    6.173533
H   27.147177   11.609873   91.690781
H   72.675629   21.083744   92.146545
H   34.940186   46.600681   17.919228
H   64.574348   53.315250   18.390926
H   96.435806    5.522658   15.493536
H   12.114992   29.932661   83.754135
H   46.051167   44.638992   81.512512
H   21.782166    8.308888   35.900208
H   54.504471   17.552586   57.675850
H   49.263512   44.944931   41.645058
H   49.849125   11.362739   46.159946
H   71.362343   98.772301   26.547283
H   56.969345    0.250255   95.083153
H   56.990669   90.664803   27.685604
H   60.764778    6.694969   26.463995
H   26.600801   76.832565   34.792187
H   82.947990    0.244992   34.725388
H   89.326500   29.519133   23.788618
H   53.317642   17.053606   31.066822
H   55.502491   44.086903   17.535080
H   99.125092   93.243828   64.194878
H   57.601616   71.295845   33.565697
H    7.096713   16.774078   55.027138
H    5.710852   37.121861   39.774395
H   43.154034   77.084450   91.618027
