100
TIME:    6.471, STEP:  6471
H   79.715164   28.598555   93.221634
H   21.762074   55.519215   86.122902
H   90.997147   39.453178   47.383999
H   82.562744   66.045135   85.465454
H   37.210892   91.436615   90.250534
H   27.671711   94.197578   19.590729
H   13.825603   98.289635   96.493706
H   11.278458   48.425053   14.047561
H   94.558342   64.133118   92.760155
H   98.013374    9.298077   61.083561
H   98.338379   26.617071   16.430374
H    8.859436   48.048328   32.315651
H   31.138870   70.276283   82.030449
H   34.675133   85.130440   49.686787
H   59.202766   92.011223   39.711903
H   41.339523   45.751747   95.891113
H    3.747721    9.977963   62.469002
H   39.446529   79.960281   75.206093
H   46.053089   49.821030    4.280659
H   18.178223   68.390907   56.908379
H   80.278412   12.008343   81.608223
H   82.761414   52.674332   68.212860
H   99.345024   41.993996   47.208069
H   17.808411   14.240206   26.480375
H   98.144966   72.977905   84.329689
H   17.047853   35.360664   81.913139
H    4.076942   73.486588   28.361898
H   86.537552   58.484108   80.670425
H   51.876686   36.191418   51.284119
H   49.119602   30.682762   97.814987
H   70.731651    2.323180   97.414085
H   74.340179   73.722977    0.211204
H   26.165291   95.033638   80.755737
H   51.517235   80.694229   99.139206
H   19.910995   69.724556   18.751375
H   35.150249   92.264915   99.081520
H    0.452534   67.553345   18.354650
H   96.535179   40.531467   79.081657
H   71.930756   40.423515   17.224329
H   53.696987    6.389532   47.159664
H   93.005066   78.217888   94.799660
H   54.873367   66.979172   10.316392
H   66.976715    2.305451   68.880241
H   66.147064   21.258261   13.436126
H   95.344643   76.578384    9.851008
H   94.596550   86.341263    9.450365
H   92.289352   76.752762   87.580086
H   56.585003   62.019180   68.966736
H   54.181587   96.522438   86.343369
H   61.599751   29.225496   31.079214
H   43.057262   44.910477   21.641033
H   19.613914   63.279907   49.255379
H   43.100887   59.529785   27.042704
H   26.838837    1.619723   17.363647
H   25.564564   25.692169   55.388653
H    1.655382    5.726859   72.338684
H    6.486082    2.828319   71.433372
H   44.211334   65.781425   46.877914
H    0.631743   12.185494   14.704443
H   31.999550   25.170536   79.559959
H   67.896263   77.639420    9.866560
H   69.249489   67.710922    2.560374
H   13.376211   65.713661   89.734558
H   87.391769   77.013382   51.454128
H   89.167801   44.016415   98.184639
H    3.823672   20.580345   28.799864
H   68.388016   72.079773   79.481766
H   33.369652   87.620277   75.553818
H   79.416389   84.821548   54.383930
H   61.483330   73.615654   88.107056
H   16.548748   55.114441   84.525185
H   40.403507   36.765213   30.397774
H   85.069580   98.225586   95.829895
H   87.757545   39.869633   18.668634
H   74.162834   37.866856   91.943375
H   78.637291   22.302765   60.512024
H   54.487881   65.720238    5.505723
H   35.999676   27.597059   71.809929
H   71.819740   34.511356   89.877968
H   82.181351   56.513802   63.438744
H   37.500076   96.227127   66.745560
H   26.875959   86.436218   45.640339
H   27.180138   15.336049   46.209206
H   95.344368   65.896629   72.390587
H   37.245705   44.120949   20.461380
H    2.357851   46.745514   91.148972
H   99.338173   32.858376   32.105705
H   60.100487   87.257996   28.483620
H   89.973984   33.876747   75.266365
H   94.215073   43.042301   55.537987
H   88.842613   22.847630   70.117477
H   57.087368   82.160583   56.821732
H    0.257183   21.681034   19.416941
H   72.663612    5.761149   63.128586
H   44.713005   70.097610   64.782837
H   28.399689   40.198334   33.213531
H   48.964592   39.036972   65.036209
H   25.786798    6.644654   48.975281
H    0.449721   64.745552    3.022245
H   41.149357   12.578972   74.369057
