100
TIME:    8.041, STEP:  8041
H   73.542229   84.623222   91.784256
H   78.403976   40.594517   85.116226
H   17.988352   52.405457   28.950619
H   82.826263    1.360291   99.407295
H   23.144773   17.278858   47.680191
H    3.321692   92.496681   75.073769
H   31.541771    4.303599   19.269840
H   87.879547   84.250542   69.896645
H   55.964745   13.183482   93.934509
H   55.131599   31.841845   22.557468
H   52.300797   89.789825   65.198746
H   48.939980   26.744167   20.561764
H   31.001945   75.274292   26.014811
H   56.938820   80.291267   69.164680
H   78.271980   51.771072   64.207794
H   78.211777    8.433733   65.567657
H   77.497597   13.821161    5.392308
H   73.018066    3.564045   20.785660
H   70.503677   15.682149   86.993179
H   75.876541   35.054142   63.801277
H   87.112389   55.711094   38.996998
H   33.278843   54.758530   34.512833
H   78.383263   29.226591    2.286962
H   71.933792   33.021942    9.878810
H   41.991402   48.469360   95.924538
H    9.693401   89.054794   34.188309
H   68.695435    8.221217   59.517063
H   54.064827   31.766394   32.564514
H   86.014412   78.634537   77.069939
H    9.321266   91.824417   22.624840
H   32.518887   43.107544   73.200752
H   73.470970   30.347416   54.868416
H   36.754025   80.164757   22.193739
H   17.853123   36.812965   32.995865
H   80.837334   50.853477   14.272245
H   71.628143   15.234605   94.146523
H   51.035084   10.055941   42.064602
H   31.643505   11.796326   89.872734
H    5.657501    6.218435   65.079689
H    5.821487   59.412636   70.684631
H   85.706482   32.088654   31.786955
H   22.562386   73.135941   90.467766
H   80.488068   11.723406   82.283028
H   65.897247   47.610207   66.940826
H   59.157738   14.636877   44.200348
H   74.329521   16.283703   15.828730
H    4.557753   62.135139    2.650302
H   56.678402   78.189682   66.109062
H    0.079278   66.493477   23.714691
H   94.562744   53.122601   21.305347
H   42.949459   93.336510   38.191086
H   95.920715   17.593363   46.195374
H   75.665184   68.633179   35.863228
H   90.482025   76.009857   86.643997
H    0.558046   63.280716   68.740036
H    3.610815    4.075372   18.892181
H    6.017301   57.526817   20.753593
H   27.306074   17.514086    6.436604
H   24.450817   78.529671   94.178421
H   28.395912   45.846737   34.905418
H   66.933060    4.628584   87.456490
H   13.527138   53.097580   31.524151
H   19.963638   58.579742   82.074951
H   95.200554   85.565781    8.824399
H   51.485146   18.622675   44.392548
H    7.377354   42.531334   21.631031
H   42.424347   26.361168   55.281902
H   24.919044   77.410515   50.608902
H   57.665993   72.011360   55.916405
H   93.333275   52.521717   84.788773
H   66.694466   48.292824   65.695534
H   11.110957   84.606834   45.447842
H   82.702637   20.571714   55.580677
H   53.192356   40.504726   25.384306
H   49.813858   40.155148   10.975626
H   15.749656   22.925087   54.871193
H   97.076866   29.831528   33.349358
H    9.760100   24.941814   58.515408
H   47.107414   29.899769    7.393852
H    5.187527   70.987999   28.181770
H   68.231010   12.470193   60.582504
H   44.686302   96.617645   14.294460
H   26.485319   41.592075   95.726715
H    3.357804    0.244633   28.996204
H   60.800446   45.907261   68.268257
H   66.231064    4.412372    0.174503
H    4.195015   18.706276    6.969241
H   85.350426   61.626358   12.205315
H   22.558327   46.461891   62.425789
H   55.407063   78.448135   11.664124
H   53.093555    7.622968    3.273124
H   73.251472    0.239860   86.740273
H    0.897218   68.789879   40.827454
H   24.397741    1.011063   68.991066
H   17.567333   29.465820    0.860948
H   58.075226   78.201904   52.120872
H   24.345453   29.135208   74.743324
H   22.756327   84.328011   17.458006
H   25.658165   71.525185   71.520042
H   38.668362   72.286636   23.124889
