100
TIME:    0.267, STEP:   267
H   99.266762   97.536140   98.901566
H   93.843102   19.221050   94.842834
H   84.351868   93.113197   20.204849
H   81.521423   21.649973   25.527735
H   92.779556   94.158752   58.465675
H   23.876034    0.923054    5.186993
H   38.976978   79.367134   11.332408
H   98.900620   11.701431   83.679100
H   47.064629   60.622437   83.280663
H   67.543907   20.220211   18.144625
H   75.419342   76.985901   14.031025
H   45.650791   37.073875   73.923805
H   26.278862   45.553589   98.591698
H   41.861668    4.254045   77.559288
H   83.750206   46.172867   37.937946
H   90.788132   88.383492   10.876362
H    2.600085   99.654243   97.664803
H    6.850322   81.716354   90.289841
H   49.421913   89.553696   77.428635
H   85.421944   99.933685   34.403297
H   48.432388   29.636703   49.995110
H   87.949440   44.452347   96.520576
H   82.179192   92.450722   24.711369
H   94.234314   39.884007   87.245056
H   20.033819   64.999321   38.530045
H   45.434238   19.654232   64.146568
H   39.055019   31.377754    5.264518
H   10.012573   68.901840   75.600998
H   16.976990   73.316368   44.550598
H   11.231835   84.231461    4.614701
H   26.604769   45.985649   88.283836
H   82.615967   45.133759   74.546562
H   89.164856   48.946983   21.850424
H   89.383324   49.253693   60.502907
H   74.135124   38.737106   40.986481
H   95.769371    5.459784   19.725622
H    5.408162   94.757179   29.503735
H   52.953362   54.067371   41.282413
H   38.717068   74.808327   16.535606
H   38.045094   87.187584   59.042053
H   16.995602   65.340050   48.629955
H    7.624741   23.840181   15.344117
H   13.541207   65.101059   20.759109
H   62.309631   17.246294    6.837780
H   33.495453   21.357353   78.955261
H   74.541420   68.223442   84.365334
H   38.899342   40.144329   29.904730
H   56.253674   98.131653   85.098404
H   72.832817   10.336872   33.822990
H   31.489630   34.813305   64.989273
H   43.524250   43.866707   56.232090
H   18.108580   38.963287   56.535004
H   14.417696   23.556885   87.363228
H   70.503494    2.845669   43.597919
H   19.503311   81.911728    2.671774
H   93.900314   12.251408   83.537491
H   13.179115   81.842674   81.381310
H    6.177907   51.671852    6.677460
H   11.335289   50.050278   90.985718
H   41.398918   48.310989   56.015465
H   76.543137   66.152451   93.578735
H   89.434784   25.460159   83.274094
H   92.343132   88.945824   15.240914
H   61.374901   43.246895   19.891203
H   42.919937   39.519344   20.426035
H   84.943214   28.999775   61.972988
H   66.146721   57.591625   79.952805
H   61.922264   32.807785   78.966743
H   70.210869   30.601402   43.487232
H   35.795349   61.574486    1.169304
H   13.553858   77.237770   58.945164
H   51.951092   42.664360   76.170753
H   89.582520    5.100811   54.903225
H   24.314079   32.483112   87.340004
H   75.043991   29.023607   21.638443
H   31.970449   24.684381   77.963364
H   91.196747    3.402349   95.757385
H   44.524475   33.262012   29.185406
H   74.351631   52.719151   20.665600
H   86.431290   94.412682   97.918976
H   16.106770   32.043896   95.946945
H   61.357296   45.971268   64.454407
H   34.689976   11.713895   55.330261
H   68.537994   35.009129   39.042671
H   39.329407   32.182899   21.869686
H   45.148808   18.860678   60.324711
H   84.987038   83.939842   36.274761
H   60.253342   83.917442   92.963341
H   61.224068   79.306221   26.016369
H   42.729256   98.300903   33.756680
H   34.949314   87.848740   39.100292
H   98.041924   15.587175   38.611710
H    2.415664   35.631416   39.570885
H   73.034920   29.427736   44.820751
H   51.975697   25.813251   22.222168
H   15.974731   85.187920   53.658073
H   41.408867   83.003059   21.833580
H    7.845534   18.511017   51.763374
H   95.992943   38.001225   22.686718
H   55.823101   71.845619   71.970078
