100
TIME:    2.550, STEP:  2550
H   44.875885   88.173393   96.811417
H   30.337410   43.002037   38.853168
H   23.586996   57.361099   93.403847
H   81.904617   27.590860    0.388162
H   72.330933   77.151260   96.564499
H   88.476570   98.445488   31.280642
H   19.325321   33.525940   89.866173
H   19.461327    9.209959   74.062019
H   90.944069   41.121353   39.573658
H    5.156710   52.997581    7.543578
H   63.060242   68.847336   94.120728
H   58.516235   51.508926   11.417463
H   81.056419    7.428829   71.679070
H   28.820061   97.216042   51.297016
H   11.517479   42.250702   28.195654
H   98.993713   88.696686   21.369398
H   19.051239   50.632576    5.524733
H   55.637115   70.694099   11.140572
H   84.982140   85.328812   97.707550
H   23.817764   51.661037   89.948524
H   12.956009    2.356099   88.031769
H    6.851334   47.469147    2.122233
H   51.697853   73.883232   59.391983
H   82.118866   67.264954   17.688141
H   38.380608   83.935242   55.376038
H   34.966557   51.625927   50.159767
H   42.189575   36.476467   50.568363
H   17.380587   75.465096   51.062435
H   66.618027   80.448067   36.631676
H   98.772408   27.727768   86.106560
H   16.413282   50.718349    7.631233
H   26.765602   82.057732   63.197792
H   49.976719   81.912392   27.521093
H   85.844414   40.030411   64.323532
H   17.385338   66.159668   80.005333
H   94.266617   84.800591   11.874078
H   24.377522   11.149050    9.395299
H   58.593185   12.281811    2.388795
H   37.436905   25.855814   97.198654
H   23.012274   73.461372   38.662861
H   60.975368   43.679432    2.421947
H    2.441691   26.303101   22.602251
H   33.205479   78.791534   85.662498
H   16.524462   55.510078   30.059786
H   35.462162   31.281063   74.321266
H   45.189068   11.554127   93.523842
H   61.654255   63.515411   49.936028
H   56.375599   21.637964   26.357445
H   39.568130   21.258724   42.753975
H   79.365868   69.559242    5.315168
H   43.350071   23.457663   80.303635
H   29.057287   27.117867    6.658196
H   61.776840   36.794495   54.770569
H   17.642284   65.605171   44.340363
H   37.755051   82.052002   22.043409
H   96.756851    9.852022    5.818787
H   57.909405   15.968144   98.513557
H   36.178314   36.071884   47.874100
H   91.390358   46.512859   15.717966
H   90.745468   23.789251   91.082527
H   20.556627   59.983395   15.578332
H    8.409214    4.207895   79.975616
H   47.198101   33.262886   58.618332
H   18.142881   55.665863   57.910984
H   33.535458   57.180622   33.037437
H   44.694618   15.504829   96.961250
H   82.976997   36.522968   90.175735
H    4.219759   63.374451   88.107346
H   83.993950   66.559593    0.299902
H   82.046692   76.401436   96.363556
H   41.059120   21.897726   31.560852
H   63.706879   66.895538   43.320999
H   40.727295   92.173759   96.362785
H   74.073723   88.010483   51.654472
H   85.117088   32.272778   94.704819
H   85.941460   71.004875   24.347286
H   98.478058    5.529448   36.147953
H   51.783962   83.982750   55.268215
H   83.794281   46.028576   46.130234
H   74.468513   70.076904    1.236509
H   60.783703   55.662579   32.395710
H   32.653076   60.880997   73.547951
H   79.139847   49.820129   72.774811
H   25.587101   30.368380   30.515472
H   28.166019   89.380066    0.558640
H   92.601257    2.719310   18.863125
H   37.463463   17.947159   45.137207
H   97.005127    1.135411   69.226631
H    8.601955   52.192009    7.337605
H   40.884312    4.359772   15.374694
H   28.379150   11.124887   87.313065
H   66.965256   87.283501   82.111473
H   48.896641    4.041014   16.190056
H   93.694557   67.910423   98.752510
H   12.502415   21.315880   74.683281
H    4.541143   95.035164   35.738281
H   60.195267   14.019624   90.536522
H   16.227743   37.949402   15.234116
H   87.237450   47.842342   31.448784
H   97.604904   13.204439   52.084381
