100
TIME:    6.914, STEP:  6914
H   49.756424   87.974037   92.816055
H    9.528809   79.523903   14.054687
H   98.615265   71.324898   42.182453
H   82.637100   47.794098   61.184422
H   33.242981   26.944929   78.238647
H   20.800533   93.717644   63.463718
H   90.607590   28.203899   31.136957
H   76.459526   86.750854   73.373909
H   83.668556   21.540604   64.876625
H   85.913612   15.659746   78.428810
H   57.131592   44.442249   73.757408
H   91.951828   70.253754    0.783510
H    2.870041   43.485226   38.011650
H   12.741447   83.764992   83.398567
H   64.583443   52.440269   18.408886
H   23.527058    7.005274   59.118652
H   68.124336   39.277813    2.797045
H   48.920170   58.403778   59.849098
H   52.951305   68.405869   27.618397
H    6.244072   58.983288   87.069908
H   53.990158   67.907562   69.582817
H   25.232254   53.262421   30.487289
H   93.430336   38.391106   34.533737
H   76.648186   19.539766   93.579514
H   82.300362   37.845520   87.601357
H   15.007168   22.275833   40.244774
H   65.877998   55.071678   37.152813
H   49.158066   79.161858   95.311813
H   61.509178   76.384254   30.342878
H   66.106583   19.718620   33.031273
H   88.164772   42.047249   62.365334
H    2.311543   61.481960   59.200447
H   57.370869   62.621147   20.664679
H   70.234688   40.095810   80.475830
H    8.885471   36.183205   45.705452
H   73.659935   26.963165   97.689034
H   42.941452   51.330200   53.261448
H   78.223305   32.423275   10.344001
H   53.231632   30.770960   74.294449
H   11.972275   64.918732   82.014023
H   62.728622   93.420326    5.236190
H   17.539856   68.716400   32.932400
H   70.789154    4.962971    0.880325
H   37.861080   28.693869   56.749214
H   56.916695   59.098896   47.760075
H   88.877892   94.790817   11.250120
H   95.750290    0.844178   91.831902
H   56.609615   66.581940   96.377090
H   67.130501   59.831478   68.673660
H   70.900146   35.968937    0.104510
H   43.026844    2.141080   26.310257
H   41.147732   22.171135   20.175392
H   52.290623   62.098450    1.313791
H   16.581078   94.393082   36.911270
H   90.291611   64.515862   59.157154
H    2.207138    5.260866   57.257919
H   34.569309   90.045692   13.566486
H   11.225217   23.945665   35.467636
H   35.569328   30.906155   80.696388
H    2.767088   59.222240   66.959984
H   95.840630   57.037170   75.325516
H   53.526558   63.587540   82.517670
H   43.452198   35.484535   59.356720
H   17.811264   79.426575   39.425343
H    6.750442    8.634178   39.440052
H   76.609558   98.558037   54.993484
H   32.845810   87.397125    0.869337
H    2.768379   12.956183   96.731781
H    1.493570   52.990387   26.598415
H   70.459190   95.895439   87.174225
H    2.480909   24.973190   79.212105
H    3.897993   22.050999   62.843391
H   56.185623   76.313660   84.473694
H   78.003380   11.832794   92.347656
H   95.523308   38.498882   25.526470
H   89.107979   50.696072   30.705301
H   94.721283   27.376308   13.362253
H   56.812618   98.630287   96.273079
H   93.065300   33.210125   94.819267
H   60.455856   32.381874   25.273796
H   46.169319    0.810351   93.223083
H   60.116768   89.309067    8.579525
H   55.202240   22.744543   88.397568
H   25.822163    3.804800   31.930042
H   15.674971   16.409790   77.517662
H   92.163620   63.019356   21.912521
H   28.925219    0.648350   53.229591
H   67.225151   51.809261   23.890442
H   99.167099    9.212137   71.643196
H   55.048923   24.814922   71.374023
H    6.972102   46.767273   79.472824
H   89.864883   15.478381   65.261650
H   28.654087   34.973873   53.674812
H   15.478354   32.637169   92.999451
H   37.054329   30.415642   74.962860
H   64.989639   22.705275   10.331928
H   13.801748   64.459991   39.559113
H   24.931704   28.564461   40.082970
H   79.346123   66.658531   65.918297
H   68.665062    1.211187   31.692867
