100
TIME:    1.026, STEP:  1026
H   47.937904   27.931801   98.206680
H   72.730171   60.374729   42.719967
H   97.392548   47.718304   11.292946
H   81.648819   90.378136   83.925041
H   85.981262   54.995949   37.885490
H   12.106415    0.096995   80.354118
H   99.198586   30.618032   70.687309
H   39.244720   77.363571   13.989574
H   28.406960   87.647598   35.503845
H   46.801582   31.115433   47.868340
H    4.819000    7.525891   40.919914
H   16.679867   75.118843   19.897127
H   77.997864   99.632774   23.153116
H    4.280409    1.913880   35.319355
H   92.980598   78.378082    1.452549
H   60.271088   21.995121   47.873520
H   41.577660   49.848007   66.770119
H   23.069336   44.806366   63.976852
H   61.240753   21.394732   17.416872
H   64.876503   84.020813   86.183830
H    3.392312   54.076538   29.397186
H   60.727406   45.454140   31.893368
H   72.045448   86.277824    2.994177
H   23.715042   48.987003   30.874878
H   92.888908    4.804981   44.132538
H   41.954502   97.038589   93.006210
H   73.606354   99.826492   20.326025
H   45.969765    4.329504    0.686420
H   33.480515   42.178471    8.673241
H   40.334118   65.446396   64.952629
H   56.461674   14.050169   28.222771
H   30.539312   24.165596    4.282120
H   42.628010   93.415642   90.227135
H   21.452995   79.695992   28.526918
H   55.268990   81.362343   87.205048
H   61.761688   65.082230   17.114012
H   78.205345   66.961769   89.310188
H   21.585083   40.175457   94.844032
H    4.594326   58.605919   43.790031
H   66.554787   16.132311   18.757254
H   65.124313   91.386665   66.516647
H   39.410149   57.906929   51.003284
H   20.078375   69.652557   75.581581
H   13.842470   29.965590   81.050545
H   67.656639   91.410599   43.906364
H   64.847771   82.491814   87.341759
H   46.913685   81.088028   36.390327
H   56.294209    5.947061   32.060970
H   95.022820   47.475327    3.545497
H   47.408291   46.365772   11.905724
H   43.466343   70.589806   64.234848
H   54.994316   68.534698    6.705959
H   30.162493   27.957825   43.281616
H   52.930828   90.464119   77.091385
H   59.081055   48.449894    9.112417
H   94.849991   11.453669   57.699341
H   61.294212   59.942207   53.568611
H   49.660339   79.994499   87.127518
H   71.194557   82.119232   32.716480
H   91.313690    6.648818   34.427696
H   24.421732   30.857719   34.400574
H   62.496399   18.395493   48.932640
H   43.826118   37.188454   63.170509
H   13.492422   47.375671   99.282265
H   73.047264   78.899651   91.110542
H   38.316414   91.267647    6.850772
H    5.250338   83.833710   16.597610
H    9.492991   76.214951   15.251334
H    8.036835   76.064514   95.882759
H   51.169685   99.747215   99.572662
H   89.451515   25.592268   49.842167
H   89.368790   17.474770   31.740141
H   40.095108   67.554634   35.440647
H    7.608607   84.452606   42.230370
H   11.640050   30.103575   79.175468
H   49.915859   73.330589   26.893215
H   60.109989   37.619743    9.188782
H   80.183670   83.633522   71.103378
H   10.730425   50.496922   29.128723
H   49.208603   53.077057   32.530273
H   30.959942   39.896099   41.309811
H   18.304359   50.928116    0.983543
H   82.714592   24.381563   27.621189
H   20.748999   99.957741   69.716286
H    2.371211   84.707184   48.293221
H   27.677731   46.742092   13.031939
H   35.678947   28.754372   72.466705
H   72.471741   23.150150   85.076393
H   76.974800   37.045616   19.805832
H   75.625137   67.065811   60.891949
H   66.010689   28.833223   55.128979
H   54.200565   72.671165   53.071114
H   51.113792   58.371536   98.288689
H   46.395042   75.468071   95.996880
H   38.853947   57.827660   39.662163
H   78.664963   55.215202   14.454906
H   81.163467   26.560286   78.182770
H   10.632274   24.973450   39.620255
H   59.835747   41.272976   59.107143
H    2.959510   52.350628   98.867134
