100
TIME:    8.258, STEP:  8258
H   58.867180   64.723167   91.585587
H   72.410782   52.354092   98.797928
H   21.718370   68.017563   26.403511
H   82.862686   92.420036   87.513618
H   21.200296   34.672367   41.796265
H   99.956299   92.261589   96.563179
H   20.168774   18.957125   36.239521
H   70.823776    3.024592   49.972244
H   50.630470   92.319550   80.275986
H   49.204628   34.957645   31.054726
H   32.115982   98.521347   44.296974
H   40.657120   37.621319    5.116004
H   17.164619   62.139168    4.450106
H   46.194115   79.622414   85.677422
H   80.907661   32.387558   53.772652
H   69.486877   89.454002   47.554962
H   60.047798   28.173435   25.146673
H   77.656998   93.004845   13.263689
H   73.884369   24.786175   98.426605
H   70.029037   30.446386   78.575661
H   74.235298   34.107449   33.108105
H   54.082844   55.046600   16.033264
H   75.486000   27.462572   96.078384
H   51.771149   35.617889   93.762741
H   34.230049   31.259621   97.527138
H    8.670254   82.657639   13.767441
H   49.982841   99.200638   63.823223
H   35.755783   41.895222   39.738136
H   90.732811   98.322678   66.811974
H   17.641708   86.453720   39.875519
H   41.060017   62.565559   56.032402
H   87.172539   24.352566   34.779625
H   52.039982   64.287758   41.742813
H   27.022545   16.926155   23.854498
H   75.436836   34.423515   27.475431
H   90.491806   32.231613   93.464424
H   71.847984    2.108360   59.163418
H   22.674408    7.825006    5.186347
H   96.497978    1.490925   44.050529
H   85.381973   39.097031   87.756958
H   70.875809   39.533791   36.899380
H    4.274598   73.986908    1.546762
H   82.355560   13.025105   97.958046
H   52.041935   51.254135   88.158722
H   40.335388    6.075810   62.770576
H   71.528282   20.421822   16.710325
H    6.254100   73.936104    4.734328
H   56.691647   80.424713   79.535805
H    6.421991   48.521942   15.058453
H   99.118896   56.425480    6.132553
H   42.934559   72.386818   40.479095
H    6.467131   97.457428   31.950771
H   80.165047   69.891418   23.260389
H   85.455688   72.470230   96.219864
H   83.280403   82.296753   70.584351
H    3.881088    3.847109   11.504990
H   19.773804   51.265419   41.392036
H   11.148330   97.020699    0.846899
H   41.565823   87.698265   77.519989
H   14.076756   62.526691   28.733421
H   80.621384   94.536743   70.536476
H    5.825386   51.077774   21.705742
H   34.695957   43.772247   67.194611
H   10.101433   86.747864    2.932430
H   60.099121    1.290735   64.600540
H   94.047066   31.743584   34.461765
H   25.013948   33.863216   65.758408
H    9.929268   89.820732   60.982758
H   68.481201   56.419121   42.305893
H   97.740425   63.420391   84.328522
H   59.802937   33.526718   63.092964
H   93.241394   77.401756   61.352985
H   68.554062    9.837770   50.016277
H   48.416012   26.771385   12.491488
H   60.267181   40.474674   27.428640
H   20.880274   36.833061   40.270645
H   16.785324   11.048988   37.198578
H   19.954073   10.753506   70.501038
H   57.512726   29.262371    9.815550
H   94.545738   59.167168    9.487122
H   72.479225   14.715158   73.552307
H   60.968918   98.024887   96.140114
H   40.211388   45.221104   16.392879
H   18.286983   18.814085    9.177130
H   50.234543   32.333172   47.232475
H   61.236919   12.383155   15.243968
H   18.688005    2.928328   17.316628
H   88.840385   44.260994    9.955383
H   27.062328   34.379478   60.651009
H   36.220562   69.521255   19.421106
H   61.974079   19.339794    7.855972
H   89.307274   16.560047   90.875908
H   14.807077   75.299614   57.608398
H   45.369255   14.176137   83.623070
H   13.814964   10.027672    5.847136
H   75.998520   69.632629   40.912605
H    7.121428   41.588280   62.263573
H   22.337465   95.066093   13.101351
H   15.320760   72.462242   53.344128
H   52.146427   66.717270    2.220163
