100
TIME:    4.206, STEP:  4206
H   32.887115   36.309631   95.295303
H   84.316353   32.780762   43.307800
H   52.052025   76.500664   73.972328
H   82.182571   59.363213    9.617238
H   57.498291    9.886950   51.662277
H   62.803127   96.651421   95.280052
H   32.534267   45.347515   19.367685
H   89.302986   52.473644   22.012646
H   50.236427   81.903580   35.334057
H   59.901451   76.775291   72.393677
H    9.023148   35.479908   34.606495
H   95.307915   34.515526   93.541817
H   75.673599    7.244629    7.092841
H   46.824211   92.111794   77.318954
H   31.662834   94.330811   48.594517
H   32.411072   43.856987   83.906189
H   85.885567   60.163609   56.277122
H   91.016075   90.162743   53.726925
H   10.778229   54.801857   84.950714
H   79.200249   16.497057    2.696678
H   14.686707   37.496990   43.084892
H   65.613663   49.667511   61.098526
H   29.587868   60.415092   12.011043
H   28.258553   87.126038   94.698349
H   79.153717   52.603470   67.602089
H   27.372999    2.313562   94.905617
H   99.390373   67.640579   83.422646
H   77.651337   52.761566    5.798113
H    2.625893   30.692890   58.352150
H   62.269852   86.740959   17.753498
H   81.588387   99.216225   76.613609
H   31.326490   36.304031    9.893532
H   66.623512   60.751244   76.706650
H   55.815216   88.268005   94.559807
H   76.221176   40.978844   80.844131
H   38.257710   14.861197    6.205304
H   83.208908   50.503403   39.881580
H   90.150764   81.980080   19.247738
H   67.537903   89.776848   36.719261
H   67.034355   18.431393   68.954651
H   47.801132    0.503794   41.437237
H   53.609818    0.624415    0.403346
H   47.469578   88.722076    5.278149
H   10.777697   83.258820   91.975220
H   91.816368   65.941895   16.029459
H   23.824505   43.139820    0.245657
H   74.594040   53.574669   65.841118
H   56.464039   38.690399   28.821342
H   87.976303   84.108734   76.696136
H   14.089976   94.751991   89.491554
H   43.223728   63.581367   97.764206
H    9.536654   73.454559   97.944824
H   96.117622   46.396545   58.592617
H   79.290428   38.581200   17.415531
H    5.906360   27.191927   36.120808
H   98.828873    8.109518   49.444641
H   62.892422   68.184319   56.013069
H   12.868237   79.682701    5.217611
H   21.995237   16.482426   88.586311
H   81.465912   51.076015   43.981941
H   25.018560   82.973289   86.463051
H   49.635460   88.793228    5.044811
H   59.606876   20.273201   45.052422
H   31.857561   64.675049   12.945591
H   99.264824   24.917389   87.255272
H   42.963814   33.180000   94.875351
H   50.113480   93.775452   70.127853
H   89.828453   58.083023   67.273720
H   66.530350   47.569992   96.438782
H   15.600306   59.693680   92.876495
H   88.472374    9.223347   11.693451
H   27.163509   11.936198   64.566704
H   32.752975   10.261395   53.908607
H   37.620235   83.215874   53.247581
H   64.957649   34.635387   20.241438
H   25.089502   77.138634   12.919502
H   48.832878   61.999378   65.434212
H   29.585857   75.701302   46.722321
H   63.203812   41.164379   64.613762
H   93.254913   79.886681   58.570549
H   93.179245   72.794662   31.371115
H   56.907150   71.695938   35.074829
H   83.910530   77.463928   30.500744
H   39.516144   72.075508   79.263504
H   47.532364   85.796913   40.027817
H   54.493122   63.550331   33.860733
H   48.063957   97.542450   24.101957
H   23.657846   68.551735   52.002281
H   42.970810   59.988731   93.791145
H   94.471359   36.229790   74.570282
H   96.149414    0.544261   22.284830
H   89.497833   11.813965   13.670176
H   55.066231   53.719025   44.260967
H   53.754360   68.359055   10.408014
H   83.870796   72.982353   12.736663
H   41.319962   29.640373   50.203636
H   28.749577    9.054290   95.297745
H   22.304831   52.049255   88.732826
H    8.349022   54.980709   92.739799
H    0.462913   70.698433   92.562576
