100
TIME:    2.987, STEP:  2987
H   15.323830   48.098167   96.411331
H   18.181480   66.696716   66.419052
H   31.098600   88.801147   88.276085
H   81.977966    9.585348   76.436340
H   68.416763   12.178723   84.715302
H   81.701790   97.972054   74.559044
H   96.422279   63.035576   24.040230
H   85.113983   47.014851   33.937618
H   80.201775   99.105408   12.065538
H   93.214882   59.272255   24.657221
H   22.411560   86.431091   52.026020
H   41.836006   73.413605   80.311348
H   53.258438   80.989639   28.245728
H    7.182446   95.869087   84.552055
H   16.833614    3.216706    7.189167
H   81.423294   50.475189   85.094093
H   83.910316   79.537094   45.306744
H   64.975426   49.442894   95.989441
H   91.790260    3.659983   20.729578
H   12.045250   42.382389   19.701441
H   87.023911   58.852905   76.169235
H   48.746948   48.049271   64.907639
H   45.863274   70.329140   46.889313
H   41.516861   72.506073   85.233055
H   22.751591   49.275925   58.600060
H   32.962795   38.606480    9.200230
H    4.506077   18.310511   59.240215
H   80.507195   95.862785   65.508507
H   76.120056   20.096006   15.975225
H   15.528502   16.912125   20.846390
H   33.611897   89.905716   73.057014
H   54.358162   69.981819   22.742485
H   80.758148   49.938896   66.889503
H    4.308560   99.982124   45.912933
H    6.522022   33.125946    6.616867
H   32.262783   19.128923   10.372090
H   66.290291   95.144516   43.829159
H   40.532661    4.283630   33.225674
H   18.989632   16.335447   54.849609
H   81.851105   32.550072   73.045998
H   31.110979   58.672634   12.718389
H   63.166618   45.917290   43.132538
H   36.969616   81.412094   17.228058
H   88.619370   62.834976   72.786339
H   97.555779   14.040619   11.716437
H   39.551197   19.889240   95.297554
H   65.070602   87.280487   54.133591
H   56.398937   26.137259   53.396553
H   52.340858   85.066216   25.320890
H   88.527824   76.207329   74.749176
H   43.316730   81.267746   84.911285
H   50.294926   86.568008   77.971367
H   70.839592   39.328369   29.388653
H    7.523457   58.474396   63.624481
H    2.963324   20.357010   25.753851
H   97.303635    9.392757   90.942276
H   85.614586    3.357962   40.076073
H    3.638346   94.802017   36.618362
H   25.855247   64.976807   82.170021
H   61.906219   57.379757   78.653206
H   48.123207   39.662388   81.505539
H   92.900139    0.139537   60.204086
H   76.848488    3.455235   28.642929
H   48.151855   58.043037   46.045116
H   50.882496   22.276966   73.735329
H   17.848885   93.780312   22.799149
H   47.916176   51.629528   11.274344
H   74.033195   88.366455    8.998473
H    5.772672   35.159554   72.894020
H   90.901917   98.379463   95.443359
H   27.182243   92.163902   26.318066
H   27.675650   52.392441   75.316650
H   12.233385   70.555809   85.160393
H   64.458336   60.357468   25.682259
H    6.187644   32.896244   27.833199
H   96.270332   99.010857   94.942749
H   38.155125   67.654434   43.876270
H   72.315018   55.408978   79.401245
H    4.751469   44.744968   51.007942
H   53.037270   46.276005   63.588486
H   69.333450   60.183544   58.514622
H   65.443268   63.734940   37.006813
H    6.786386   57.115021   14.396765
H   55.650188   67.763031   90.600800
H    6.886810   62.047321   58.196266
H   82.545776   18.771088   49.209606
H   66.649696   86.173683   65.974991
H    4.039007   66.147964   64.678993
H   17.671547   27.860430    3.762259
H    2.247057   86.381790   30.996330
H   46.262970   34.721401   96.541702
H   99.298828   20.145510   90.439919
H   76.927139   17.141211   49.993736
H   35.932819   94.416084   28.217102
H    4.945970   82.172455   84.725426
H   40.635559   77.778145   13.166689
H   25.508171   39.098248   65.404488
H   17.831419   41.670197    8.241789
H   66.419670   49.726078   94.843742
H   24.745295    1.983891    9.992013
