100
TIME:    1.000, STEP:  1000
H   49.696205   30.316139   98.230484
H   73.453407   58.964954   41.079891
H   96.945831   45.847729   11.598228
H   81.644455   91.449303   85.350090
H   86.214142   52.911934   38.590477
H   12.509590    0.125292   77.779350
H    0.561296   28.862310   68.654076
H   41.288269   75.114120   16.376846
H   29.046089   90.147385   37.140549
H   47.512123   30.742210   46.850136
H    7.237457    6.479743   43.424263
H   17.672283   73.815590   21.747766
H   79.651825    1.205835   25.737307
H    5.567743    1.994038   33.340672
H   92.664406   80.700531    2.702383
H   61.316467   24.269367   50.031723
H   43.668022   48.128586   64.402840
H   22.513718   46.070740   64.878220
H   60.835892   20.303926   16.047167
H   65.580299   84.565918   84.410057
H    4.935169   56.664993   30.102867
H   58.234364   45.419823   34.107311
H   72.392586   86.489281    3.738092
H   26.130722   48.675175   32.805954
H   93.818840    6.866978   43.940720
H   42.073719   97.813400   95.443314
H   75.848267    0.907296   19.810080
H   48.163475    3.115887   99.827042
H   32.915176   39.819523    9.902206
H   39.337139   66.089890   62.885677
H   55.438908   11.718496   30.280106
H   28.897650   24.883873    6.689047
H   40.796513   95.317955   87.884850
H   20.354454   82.078743   29.622187
H   55.915260   83.327736   85.621704
H   59.501129   63.039867   17.203474
H   75.711510   67.913918   87.261482
H   22.659622   40.651333   93.009163
H    5.763212   59.160942   46.282082
H   69.003792   18.566339   16.711622
H   66.901260   90.494423   65.904099
H   41.746880   56.739952   49.781757
H   19.854422   69.496643   73.703468
H   15.502680   29.529882   78.508308
H   69.912041   92.436539   41.681313
H   65.179832   82.002983   87.239799
H   46.639149   79.685593   36.168159
H   56.292820    5.679368   30.452238
H   94.262688   49.628571    4.582688
H   46.862988   45.970036   13.724129
H   43.468327   73.099907   63.960712
H   53.730736   70.947205    8.412865
H   29.623140   27.807068   44.791763
H   53.532864   90.888222   75.944046
H   61.150986   46.170490    8.891787
H   94.817459   11.480993   58.584442
H   59.646004   60.692421   51.095802
H   51.596375   82.449852   87.797195
H   69.143867   81.020691   34.712620
H   93.029541    4.650298   35.167198
H   22.781557   32.066750   36.427658
H   63.419189   18.637497   50.109138
H   42.062462   38.961433   64.954201
H   11.707045   47.234238   99.988045
H   72.015373   80.976128   88.689308
H   39.913643   92.560188    5.313499
H    7.336435   82.934723   15.342262
H   11.289031   74.728012   14.008384
H    6.740946   77.932709   97.513313
H   50.643028   98.439598   99.627411
H   90.277107   27.361380   50.153996
H   91.512711   18.337654   29.836538
H   41.790329   68.840828   36.107349
H    8.180839   86.097839   43.775627
H   10.386537   30.066580   77.204521
H   49.301128   71.664330   28.642689
H   57.749256   39.873161    8.728725
H   78.962143   85.333504   69.667618
H    9.484102   50.573093   28.838814
H   50.483688   54.493179   34.770203
H   30.451138   39.627117   39.755825
H   16.353546   50.758316    3.157761
H   81.069359   23.947641   25.144810
H   18.960348   97.732887   72.091103
H    3.637233   86.333374   50.813637
H   28.276196   45.786968   11.226377
H   33.942467   30.644783   71.226929
H   72.053192   25.231686   85.346565
H   76.435249   38.493279   20.018578
H   77.923782   68.135788   59.962414
H   64.946663   27.429300   54.579906
H   52.276829   70.715691   52.575798
H   49.445549   57.592560   96.277275
H   43.881966   73.891075   94.243736
H   39.303440   60.156654   39.064690
H   76.517471   56.241936   15.797882
H   83.227249   25.068190   79.678040
H   10.536811   24.752075   40.036224
H   61.074333   41.160900   61.284985
H    1.344813   53.018520    1.371321
