100
TIME:    2.179, STEP:  2179
H   69.965485   22.195816   97.151077
H   40.657433   22.886278   15.450569
H   17.209867   30.669502   97.757164
H   81.842346   42.875999   20.724369
H   75.653946   47.413975    6.623646
H   94.228157   98.847420   94.539177
H   38.768986    8.473349   60.853493
H   48.621193   77.112701    8.124828
H    0.063956   76.791382   62.928158
H   15.294165   47.670570   93.016106
H   97.569763   53.919254   29.857492
H   72.675522   32.912506   37.824974
H    4.656815   29.875008    8.554457
H   47.190041   98.359566   23.062725
H    7.004316   75.390259   46.030365
H   13.911644   21.145943   52.165787
H   48.879105   26.097755   71.745773
H   47.708870   88.735741   24.003803
H   79.202248   69.766693   78.160080
H   33.812279   59.538334   64.689095
H   34.971680   39.291317   98.102707
H   71.283203   46.976639   33.716278
H   56.651237   76.900551   70.006378
H   16.588844   62.815403   45.243111
H   51.650017   13.359894   52.638939
H   36.667690   62.679050   84.934227
H   74.181877   51.899891   43.206219
H   48.683807   58.148067   38.797855
H   58.551086   46.787697   54.169487
H   84.546288   36.909927   56.612698
H    1.817632   17.447969   36.987377
H    3.340656   92.309822   97.543144
H   23.843105    9.056564   94.098480
H   70.169075   74.030441   79.953583
H   26.608540   94.204315   57.413063
H   62.010174   55.656895   13.149220
H   88.793457   24.736891   80.162048
H   73.927864   19.072193   76.206841
H   53.098091   33.938660   33.150536
H   57.955227    8.192176    9.472952
H   86.330696   30.950533   93.680832
H   35.785095    9.651507    5.173033
H   30.009840   76.566757   58.863815
H   40.214867   49.291458   93.785202
H   67.642494   45.917606   42.574226
H   49.975452    4.477863   92.018013
H   58.752987   43.339569   46.372421
H   56.355785   17.818197    3.402112
H   28.724463   51.983860   57.554688
H   71.587639   63.915173   31.262447
H   43.378376   59.275215   76.391876
H   11.028383   61.545101   31.014675
H   54.080696   34.643311   76.317589
H   26.232868   71.656792   27.969069
H   67.291061   49.528233   18.895887
H   96.292648   10.241924   18.448502
H   34.390736   26.673119   63.228477
H   63.804047   71.107880   57.429886
H   62.128777   30.837416   44.200531
H   15.227924   95.272385    1.634556
H   97.153244   77.237495   44.503277
H   21.575310    7.661819   96.760513
H   22.032639   58.561943   84.070236
H   92.667236   53.647713   67.983635
H   18.809605   86.811005   98.486893
H   67.485847   33.948402   75.024834
H   12.743177   23.697031   72.264297
H   29.847481   42.156982   70.371399
H   65.505089   93.217293   23.569031
H   74.528870   57.741798   97.144775
H   52.839684   47.140739   36.013096
H   94.298950   79.208237   16.157465
H   64.916794   10.525135    5.874966
H   82.236900   11.487613   73.704109
H   67.228294   31.744158   66.580917
H   77.172554   47.226631   49.309948
H   64.795044   37.685654   29.586321
H   34.353710    8.240751   34.778187
H   66.001724   47.118320   41.989204
H   92.663002   90.281052   33.198311
H   53.523457   51.824413   10.222734
H    4.815340   58.458084    4.570478
H   55.668293   43.626984   37.438786
H    0.064766   98.621437   64.402283
H   46.230606   12.585737   36.522751
H    1.138396   89.092949   93.099510
H   12.685217   44.921875   27.446547
H   91.032761   30.838394   73.087440
H    0.901929   72.849037   10.372692
H   73.686203   19.624687    2.112937
H   13.196320   91.091461   79.478226
H   39.512493   59.385571   75.040871
H   25.092503   92.923508   87.488327
H   57.837231   45.405567   73.736504
H   18.917755   54.548843   66.157799
H   73.898041    9.685377   54.900803
H   89.643845   92.728996   11.873169
H   14.865682   34.790558   21.171009
H    4.910929   46.243107   62.524902
H   74.564590   22.733543   87.816681
