100
TIME:    6.020, STEP:  6020
H   10.214605   69.957512   93.634537
H   34.216560   31.078810   57.686893
H   83.241455    7.007220   52.679478
H   82.487045   84.625763   10.185603
H   41.250458   55.286972    2.479136
H   34.666973   94.686180   74.927635
H   37.462093   67.838051   61.224918
H   46.726166    9.409030   55.458233
H    5.644844    7.494933   21.148989
H   10.333071    2.821867   43.425083
H   40.289291    8.470348   59.871811
H   26.074043   25.441898   64.418846
H   59.918198   97.548515   26.844170
H   57.006294   86.520546   15.364239
H   53.723457   32.296463   61.398174
H   59.472839   85.197731   33.328827
H   40.014595   80.146614   21.412695
H   29.801809    1.905900   90.841347
H   39.030300   30.899759   80.518677
H   30.327888   77.970253   26.202173
H    7.041374   56.908085   93.850792
H   39.523605   52.075623    6.619645
H    5.367024   45.661949   60.111282
H   59.714024    8.844942   59.976833
H   14.274901    8.743019   80.998940
H   19.103765   48.693985   24.324074
H   42.967712   92.232376   19.412230
H   24.591953   37.432945   65.764633
H   42.070244   95.273773   72.603668
H   31.825874   41.844902   61.961258
H   52.981575   61.879658   33.095695
H   45.863651   86.185760   41.962486
H   94.397453   28.030092   40.126099
H   32.461769   22.025536   18.138121
H   31.131229    3.853363   91.304779
H   95.946259   56.941078    0.499400
H   57.194641   84.069458   82.817848
H   15.175674   48.786083   47.255543
H   90.965576   50.250603   60.929512
H   96.176971   48.611439   11.675093
H   23.827042   62.741196   84.174294
H   92.881073   65.210571   87.291069
H   63.094624   99.600098   36.305130
H   94.947037   13.688375   69.338829
H   34.465557   94.374496   71.257919
H    0.418332   77.739120    7.618109
H   88.765915   52.226334   83.251488
H   56.560917   57.374023   41.061390
H   40.999664   33.873322    4.332747
H   52.135372   22.359602   62.616043
H   43.088230   88.451080   16.887489
H   97.693916    5.128072   78.860512
H   33.745197   56.914734   53.237621
H   37.281837    8.978856   97.463219
H   61.473656   86.169022   51.552097
H    1.093662    6.201267   87.691788
H   77.893150   15.842481   28.539650
H   77.794098    8.372618   58.494247
H   65.060211   93.128380   49.326378
H   61.759521   90.504929   92.387474
H   39.447254   98.614883   45.028828
H   85.256355   71.908768   22.967628
H   82.758629   96.488686   20.660980
H   56.423218   74.556610   63.700138
H   71.268463   80.037216   56.185535
H   31.527733   43.000969    2.132776
H    4.572253   56.487469   57.708023
H   64.523170   61.827610   53.993412
H   56.939632   17.227516   82.668945
H   52.347855   50.931541   89.056732
H   30.871315   85.800003   89.934212
H   77.590103   51.732941   97.377701
H   14.475903   20.532928    7.393303
H   97.687859   68.412071   45.465172
H   52.418453   37.223415   57.755020
H   67.977516   93.398125   90.859985
H   13.531573    4.772055   97.514687
H   14.810878   57.088387   46.902641
H   50.192707   35.836086   84.847435
H    4.298955   81.081520    2.292864
H   28.674280   91.561325   39.789890
H   93.030228   83.511353   83.367790
H   98.652275    7.794539    3.257240
H   64.314720   27.303768   13.583602
H   59.205254   72.331520   64.180908
H   12.738682   30.177979   59.830292
H   69.216911   65.649742   10.600348
H   52.847160   23.346815   33.159744
H   80.614853   58.988121   78.954964
H   34.089611   61.598843   39.417572
H   70.385857   98.494965   60.593182
H   23.717936   48.240616   48.229912
H   71.347107    8.148145   84.540421
H   29.077480   78.399605   32.718292
H   52.509987   10.494091   54.418980
H   91.148880   58.008209   56.508133
H   84.763268   13.156005   90.973389
H   26.657335   84.327866   58.028175
H   21.933960   62.800152   40.799408
H   13.137251   24.152294   17.814472
