100
TIME:    6.994, STEP:  6994
H   44.346268   80.637611   92.742813
H    7.319617   83.858620   19.098938
H   99.990997   77.080513   41.243122
H   82.650528   44.498199   56.799046
H   32.526428   33.357281   76.069458
H   19.559689   93.630974   71.386124
H   86.414474   33.606121   37.393063
H   70.171684   93.672241   66.028938
H   81.702003   13.848910   59.840717
H   83.728554   16.808474   81.561134
H   49.690186   47.661243   66.051109
H   88.898849   74.263763   95.088966
H   97.765450   38.646519   30.062283
H    8.780418   83.518410   89.486214
H   65.555122   45.294273   14.561840
H   20.310200    0.008055   52.478027
H   61.691231   44.568951   10.079766
H   50.630985   54.510956   57.076271
H   54.197033   71.761581   31.832874
H    4.088921   57.284679   92.516685
H   49.242844   59.943382   67.411186
H   32.901932   53.368622   23.674545
H   92.362221   37.740471   32.244919
H   69.215324   20.496798   87.638351
H   79.439034   31.500916   88.192177
H   14.629971   19.917740   32.716087
H   58.979359   51.745872   38.740337
H   42.408188   82.895988   97.955856
H   63.248680   83.642555   26.561445
H   69.174210   17.738640   39.391136
H   91.312965   49.220711   56.035988
H    7.362736   59.271877   51.794441
H   63.006245   56.767876   27.871710
H   73.614815   32.764267   77.105469
H    6.894394   30.126076   50.573006
H   80.614281   33.229279   97.437569
H   50.614182   48.400513   59.565159
H   74.916420   30.959042   15.989142
H   49.854557   29.028101   66.541763
H    4.437180   57.429180   88.307968
H   57.261093   96.165688    7.120803
H   10.797794   69.030121   37.016262
H   71.477631    5.442860    6.658676
H   32.753048   30.036642   64.570915
H   49.977608   55.942768   54.605778
H   87.845177   96.316696   11.575132
H   96.375290    5.195016   92.599724
H   56.614498   67.405914    1.327011
H   69.469368   53.206112   65.482742
H   72.579834   37.186588   94.511238
H   43.021351   94.417618   27.153458
H   45.036282   14.747429   14.923959
H   53.950169   62.562317   96.667702
H   14.728661   93.088150   40.441544
H   83.921982   71.526360   59.837696
H    2.306778    5.176714   54.534531
H   39.640720   87.737343   21.175179
H    5.268338   16.390429   33.407089
H   41.878532   34.286892   74.555031
H   97.487785   65.371399   64.684593
H    0.887045   53.317078   69.087723
H   50.687202   62.842911   78.898285
H   48.883717   30.025440   53.870880
H   23.304733   79.862366   37.253101
H    9.925826    2.244644   46.890003
H   71.695007   94.580986   59.723709
H   26.427088   90.163239    4.731902
H   97.242180   17.531683    0.556243
H    5.480899   47.242096   21.580715
H   72.080284   99.918877   87.005768
H   99.940422   19.530075   78.252632
H   97.314491   19.388950   68.706429
H   50.969559   72.357361   82.422913
H   76.241905    6.769641   87.594238
H   99.380302   38.613468   31.591373
H   90.998848   55.823635   25.322306
H    1.986968   20.451870   14.781015
H   60.571163   93.399574    0.690878
H   96.901970   32.975140   95.711601
H   56.532516   28.023685   18.381706
H   47.734871    1.638179   98.004578
H   66.119789   89.827866    1.886773
H   60.262665   24.082434   96.015976
H   31.326008   10.650656   24.623524
H   11.779707   11.405377   69.762535
H   90.322800   65.957794   27.467941
H   34.268238   94.831688   57.044289
H   68.511772   45.407284   23.060974
H    0.827368    4.757944   70.988899
H   47.975559   21.523296   74.234131
H   10.246052   51.086731   81.162277
H   95.784073   21.494934   66.786308
H   33.782261   37.374386   59.861336
H   23.209972   37.490685   98.393738
H   35.671272   23.249504   76.801239
H   71.597305   19.546400    6.199696
H    7.451803   69.051056   34.958282
H   24.777285   32.522854   38.477135
H   75.535088   67.003990   59.217419
H   73.634544   99.158188   23.985958
