100
TIME:    4.130, STEP:  4130
H   38.026764   43.279236   95.364883
H   86.415352   28.662203   38.515472
H   50.745659   71.032829   74.864113
H   82.169815   62.494316   13.783200
H   58.179016    3.795215   53.723007
H   63.981930   96.733757   87.753807
H   36.517147   40.215405   13.424386
H   95.276436   45.898907   28.990948
H   52.104652   89.210648   40.118267
H   61.978416   75.684044   69.417969
H   16.092484   32.421864   41.926899
H   98.208244   30.706018   98.951668
H   80.523331   11.840683   14.644608
H   50.587334   92.346046   71.535690
H   30.738289    1.119468   52.248051
H   35.466797   50.504204   90.214783
H   91.997017   55.137028   49.358543
H   89.392540   93.858604   56.362270
H    9.594498   51.613350   80.946381
H   81.248222   18.111025   97.522270
H   19.196655   45.063244   45.147362
H   58.327469   49.566620   67.570633
H   30.602577   61.033195   14.185565
H   35.319771   86.214539    0.342486
H   81.871979   58.630844   67.040810
H   27.719450    4.560347    2.052551
H    5.943937   70.799515   81.915077
H   84.064301   49.214142    3.285837
H    0.973257   23.797794   61.944801
H   59.355606   88.621941   11.711918
H   78.597603   92.400856   82.626488
H   26.527784   38.403610   16.929237
H   61.270191   66.311852   69.859970
H   52.604095   95.232971   97.761650
H   78.110275   46.723839   76.215897
H   31.651083    8.908476    6.444413
H   75.919235   53.286606   33.893055
H   93.292305   83.370522   13.884796
H   70.745544   91.432854   44.084312
H   74.192986   25.546246   62.975300
H   52.995285   97.895798   39.646709
H   60.440262   97.213745   96.832748
H   46.814945   88.266327   99.788628
H   15.630617   81.985504   84.544067
H   98.409081   68.940796    9.525752
H   24.805004   41.690235   99.936806
H   74.000290   49.441612   65.111687
H   56.459980   37.907623   24.118889
H   85.754379   90.403412   79.727509
H   12.496013   93.595802   94.807472
H   43.229527   70.918587   96.962875
H    5.843401   80.506500    2.934030
H   94.541634   45.955872   63.006893
H   81.050804   39.821465   14.062060
H   11.957388   20.531374   35.474293
H   98.733780    8.189535   52.031860
H   58.074581   70.377251   48.784859
H   18.527336   86.859886    7.175276
H   16.001493   13.271139   94.420601
H   86.481476   45.234188   46.143562
H   20.224203   86.507957   92.388954
H   52.332848   89.500626    8.483724
H   54.446934   25.459526   50.263969
H   26.638765   64.261047   15.009220
H   96.248528   30.987381   80.177818
H   47.632637   36.958199   90.381638
H   56.211014   91.147644   66.458664
H   95.078270   53.736588   63.640484
H   62.742683   53.030869    1.205140
H   14.060556   55.870834   93.036530
H   90.885643   14.394451   12.605240
H   33.430000   14.458621   59.002094
H   37.708237   14.020458   55.857430
H   39.293636   88.025017   57.763329
H   61.293530   34.526958   14.479918
H   23.292597   72.268028   18.033260
H   41.932274   68.586472   64.090157
H   26.015240   80.670479   42.524902
H   59.559555   41.387615   63.765884
H   96.982086   84.025536   65.118034
H   91.692551   72.008408   26.828985
H   51.204483   71.199600   41.429810
H   79.102547   76.195251   23.262096
H   34.287781   65.572090   86.205276
H   51.232864   90.550392   47.395187
H   56.242481   60.758430   28.583084
H   42.988091    3.068285   20.477995
H   22.434687   74.636513   52.792595
H   41.393661   64.220360   94.412727
H    1.190551   39.356834   71.853180
H   93.039185   96.440239   20.679850
H   83.874603    6.098686   12.221931
H   50.194466   51.438538   38.383770
H   46.408443   63.749344    5.283770
H   85.184700   79.789604   10.990348
H   35.042679   32.641365   54.129112
H   34.782013    4.692923   99.668533
H   22.025930   51.402161   89.949318
H   11.969505   54.653103   99.105217
H   95.741951   72.648994   99.883560
