200
TIME:    0.461, STEP:   461
H   16.262110   61.741543   19.118540
H   29.934067   36.104511   98.868896
H   13.505678   78.811287   56.233635
H   25.292101   79.556862   38.720600
H   12.863729   89.330460   50.481052
H   82.429077   46.816708   59.008022
H    6.561118   55.147324   53.928989
H    7.841113   98.429688   17.227768
H   96.403564   84.193047   42.328125
H    3.081615   71.803215   87.355339
H   19.896711   99.315254   99.945480
H   31.691666   47.921650   23.272434
H   16.598347   94.342400   52.233971
H   93.957962   54.139347   52.915188
H    8.951971   73.645859   42.434826
H   22.858658   16.860603   49.555569
H   94.603882   18.069021    4.702154
H   31.314260   93.791130   39.585861
H   72.378487   21.700968   45.737156
H   90.759354   76.669701   28.903667
H   60.737305   87.790382   15.715472
H   85.109001   57.261711   62.058220
H   88.387283   60.934608   43.833435
H   13.289256   90.074066   90.893097
H   12.852310   21.592302   37.524479
H   18.478151   72.144157   99.657440
H    3.175487   63.231190   57.967590
H   99.582062   79.246155    1.312784
H   20.376686   49.812325   37.044285
H   83.062675   26.684650   90.981140
H   13.072959   60.682316   16.465010
H   27.907242   68.686020   99.044159
H   21.783432   13.740962   75.878593
H   89.112267   63.819031   42.153145
H   37.382893   80.669113   32.538052
H   25.842236   44.883053   82.010681
H   92.607559   69.659035   87.614052
H   21.983488   50.472023    5.230856
H   44.890999   38.486923   49.344074
H   87.963326   38.779682   55.063568
H   80.570068   94.900017    8.859760
H   24.339403   38.472652   33.278126
H   72.722672   82.705093   58.534512
H   36.788925   73.967583   26.652332
H   36.328007   83.037849   52.339149
H   37.949787    8.087012   45.091408
H   84.138809   15.384902    1.024690
H   84.735489   65.547234   39.702774
H   95.627190   20.365520   61.325668
H   54.208763   18.798830   96.362694
H   72.950989   67.698883   19.110306
H   12.690015   39.501812   68.293144
H   58.136654   88.098846   10.818589
H   19.117441   86.847443   84.975876
H   67.844437   71.469963   83.625992
H    2.472591   66.905655   85.884949
H    4.799778   17.581764   47.283939
H   69.823166   63.716930    1.314659
H   23.517841   78.746658   12.471621
H   37.991890   94.748207   62.908821
H   49.703770   11.064636   35.779598
H   93.907982   16.948416   50.760056
H   77.535805   29.784641   77.429001
H   29.480658   65.467636    8.601772
H   74.900978   79.373703   26.966656
H   30.070541   25.147148   36.835739
H   77.920021   18.500353   90.401070
H   96.103828   91.952385   91.646973
H   24.383488    8.839746   59.182571
H   43.964806   45.481873   50.970791
H   58.368214   80.414513   79.192795
H   25.929342   18.012810   43.217834
H   84.507950   29.483791   92.095482
H   15.065205    4.106964   67.006325
H   81.836044    4.449055   57.221306
H   58.899796   11.274321   61.433331
H   94.493484   38.177502   69.019554
H   18.369665    9.994228   40.410454
H   13.210754   39.539482   30.043720
H   64.946053   89.434410   83.780853
H   52.747852   26.366924   97.852737
H   36.354042   64.616119   81.025169
H   10.137486   16.090485   83.813538
H   17.467270   69.086205    1.054493
H   31.038364    1.660825   51.519192
H   30.893545   78.041885   23.182308
H   45.760189    3.244624    2.277984
H   73.493645   10.318999   19.777826
H   72.449997   72.595161   77.966736
H   22.337208   95.952972   52.434155
H   31.978567   36.800613   79.771492
H   82.516022   90.474472    3.190020
H   57.758171   14.369627   89.435631
H   50.117836   86.493820   75.172928
H   30.724848   53.936752   77.144180
H   60.119942   32.650402   18.670692
H   82.303474    6.635237    7.847133
H    0.819268   31.872866   50.686016
H   32.010201   67.564186   53.664440
H   71.047043    1.518539   27.304361
H   19.726408   86.536804   79.346382
H   98.790337   80.000099   64.645554
H   27.760519   29.093399   33.591133
H   32.495338   68.347519   98.938499
H   25.045780   24.568432   32.252602
H   96.172256   15.952782   33.544041
H   76.127274   32.840904   55.230713
H   63.449173   42.759655   10.195905
H   78.412949   37.300007    9.819065
H   11.466041   24.979048    6.618895
H   50.102215   94.146317    0.951340
H   94.867882   68.902771   93.028503
H   53.255642   82.839211   89.128311
H   62.475548   14.632860   69.254974
H   56.475273   91.171280   19.023783
H    5.019354   99.332085   88.904274
H   23.488567   11.554611   86.756454
H   39.649860   37.874329   29.560936
H   27.255306   66.010887   72.617126
H   76.614838   51.085690   57.586926
H   42.861153   23.228024   80.278046
H    8.753380   22.244701   54.688908
H   37.564461   12.501748   30.585114
H    0.821206   59.366001    8.187263
H   70.303505    3.480210   85.503906
H   55.818981   68.399002   21.264297
H   89.893333   50.221817   62.519745
H   70.594635   89.303276   36.869083
H   95.187393   44.483986   79.853897
H   78.456963   23.101858   70.266663
H   57.530090   77.294769   11.856998
H   73.217255   88.243301   14.538709
H   91.716103   93.346970   99.019096
H   90.084023   18.669266   52.427357
H   15.343733   97.374100   46.261528
H   56.471916    1.343217   80.425751
H   69.258598   87.127678   66.340439
H   93.103401   57.320602   79.706467
H   52.089798   47.424248   71.497818
H   43.567657   98.490578   89.316727
H   61.558735   56.569607   22.048843
H   47.064392   47.725704   51.398758
H   47.901134   60.828697   91.930016
H   47.586388   18.527864   81.786629
H   50.689976   62.437614   56.295155
H   54.037609   65.783386   19.261700
H   49.958153   95.809975   45.699493
H   36.617905   65.192230   67.557030
H   71.093353   55.565189   95.747475
H   16.506716   91.087601   81.726631
H   68.430458   65.063202   49.675804
H   43.090405    0.994732   41.226688
H   86.442390   23.575031   95.706520
H   15.752004    6.215471   70.491257
H   22.376022   59.715462   64.751633
H   70.062698   44.076885   60.860142
H   61.624584   67.511238   83.372604
H   49.188107   33.114037   14.901712
H    2.267063    0.901613   94.408997
H   61.201958   47.926575   86.722137
H   56.126797   75.430923   77.539841
H   33.227871   21.911020   33.629414
H   74.732307   24.934439   37.140160
H   19.386787   26.671974   61.743366
H   56.838135   29.587275   11.996026
H   15.721322   57.407433   61.093735
H   71.094315   93.992439   54.564529
H   23.825272   40.987598   57.151356
H   97.075897   27.451511   36.335087
H   36.558338    8.791954   87.914673
H   75.143005    8.262021   35.957527
H   38.528297   57.238499   58.136768
H   41.942982   67.958145   84.205704
H   68.504578   69.251740   79.366692
H   61.166168   93.374054   88.840012
H    7.730609   48.854607   23.498772
H   33.147415   59.824871   96.152832
H    3.688666    9.411621   67.706100
H   69.949776   16.242029   66.550056
H   75.787720   56.825752   89.502594
H   77.382988   93.109009   36.580921
H   23.685284   30.375820   77.684135
H   55.460175   89.935585   10.444908
H   56.293598   25.629364   85.320641
H   88.380898   78.748924   77.486343
H    3.886986   38.088593   85.060280
H   39.047333    0.739010    4.161972
H   79.803703   76.585762   33.259472
H    0.218376   62.158928   69.069183
H   53.632381   57.071125   68.495193
H   58.377762   23.712589   77.723274
H   45.841206   90.935074   21.809450
H    9.009413   22.781694   62.868717
H   31.242489   72.351097   37.767105
H   77.310547   44.384087   21.093370
H   75.867691   10.925736   26.538565
H   10.930291   91.585518   10.926068
H   22.486729   93.013901   40.734058
H    8.966225   12.230270   68.133171
H    5.702737   27.505377   94.678413
