100
TIME:    6.935, STEP:  6935
H   48.336258   86.048225   92.796829
H    8.948902   80.661766   15.378802
H   98.976395   72.835747   41.935879
H   82.640625   46.928925   60.033260
H   33.054886   28.628172   77.669235
H   20.474812   93.694893   65.543381
H   89.506897   29.621983   32.779186
H   74.808968   88.567719   71.445854
H   83.152336   19.521545   63.554775
H   85.340034   15.961315   79.251045
H   55.178223   45.287235   71.734505
H   91.150421   71.306381   99.288719
H    1.529982   42.215183   35.924980
H   11.701677   83.700264   84.996574
H   64.838509   50.564445   17.399036
H   22.682632    5.168503   57.375488
H   66.435646   40.666737    4.708764
H   49.369259   57.381912   59.121231
H   53.278309   69.286743   28.724697
H    5.678345   58.537403   88.499687
H   52.743988   65.817047   69.012764
H   27.245544   53.290298   28.698944
H   93.149956   38.220314   33.932922
H   74.697060   19.790987   92.019958
H   81.549263   36.180061   87.756447
H   14.908154   21.656834   38.268494
H   64.067223   54.198654   37.569538
H   47.386223   80.142067   96.005875
H   61.965797   78.289558   29.350252
H   66.911835   19.198875   34.700737
H   88.991173   43.930283   60.703880
H    3.637481   60.901814   57.256371
H   58.850155   61.084663   22.556524
H   71.121971   38.171280   79.591110
H    8.362803   34.593208   46.983185
H   75.485451   28.608036   97.623024
H   44.955544   50.561157   54.916172
H   77.355247   32.038914   11.825850
H   52.345150   30.313459   72.259369
H    9.994312   62.952778   83.666183
H   61.293396   94.140984    5.730901
H   15.770090   68.798752   34.004414
H   70.969879    5.088942    2.397142
H   36.520222   29.046347   58.802399
H   55.095184   58.270412   49.557072
H   88.606804   95.191360   11.335436
H   95.914352    1.986272   92.033455
H   56.610897   66.798233   97.676453
H   67.744453   58.092319   67.836044
H   71.341064   36.288570   98.636269
H   43.025402    0.113621   26.531597
H   42.168476   20.222412   18.796883
H   52.726254   62.220215    0.094132
H   16.094818   94.050537   37.837967
H   88.619583   66.356117   59.335796
H    2.233293    5.238776   56.543030
H   35.900555   89.439751   15.563795
H    9.661536   21.962416   34.926743
H   37.225494   31.793598   79.084282
H    1.381329   60.836430   66.362694
H   97.165306   56.060646   73.688095
H   52.781227   63.392075   81.567581
H   44.877972   34.051552   57.916687
H   19.253300   79.540970   38.855129
H    7.583992    6.956931   41.395664
H   75.319489   97.514061   56.235168
H   31.160925   88.123230    1.883263
H    1.317732   14.157252   97.735703
H    2.540242   51.481461   25.281269
H   70.884727   96.951591   87.130005
H    1.814034   23.544373   78.960243
H    2.169779   21.352211   64.382439
H   54.816406   75.275131   83.935364
H   77.540993   10.503712   91.099884
H   96.535881   38.528843   27.118469
H   89.604332   52.042057   29.292265
H   96.628510   25.558643   13.734678
H   57.799236   97.257225   97.432732
H   94.072426   33.148441   95.053505
H   59.425980   31.237869   23.464622
H   46.580276    1.027656   94.478226
H   61.692505   89.445251    6.822676
H   56.530602   23.095739   90.397400
H   27.266922    5.601837   30.012081
H   14.652464   15.096141   75.481941
H   91.680405   63.790802   23.370819
H   30.327761   99.121468   54.230949
H   67.562889   50.128742   23.672707
H   99.602890    8.042912   71.471443
H   53.192165   23.950871   72.124802
H    7.831528   47.901131   79.916306
H   91.418671   17.057735   65.661873
H   30.000233   35.604008   55.298775
H   17.507896   33.911217   94.415451
H   36.691277   28.534531   75.445435
H   66.724152   21.876070    9.247217
H   12.134888   65.665146   38.351395
H   24.891169   29.603550   39.661438
H   78.345726   66.749214   64.159431
H   69.969551    0.672312   29.669804
