100
TIME:    9.491, STEP:  9491
H   75.484528   51.651588   90.456741
H   38.357285   19.166821   76.543633
H   42.912441   56.724312   11.930113
H   83.069641   41.622002   19.928125
H   10.151724   33.502487    8.366421
H   80.841187   90.925789   18.671055
H   55.545521    2.214775   32.661739
H   73.912415    9.694620   36.761795
H   20.320976   73.770966    2.662151
H   15.525110   52.661701   79.331764
H   17.425323   48.131973   25.526083
H   93.594963   99.425591   17.349289
H   38.540161   87.511024   81.917908
H   85.144257   75.821968   79.509666
H   95.883675   22.249916   94.479027
H   19.910610   81.611313   45.205139
H   60.897255    9.727442   37.391525
H    4.026389   33.006721   70.520096
H   93.093552   76.513229   63.382580
H   36.811062    4.261881   62.524010
H    1.066857   11.358452   99.641556
H   72.291763   56.683426   11.031921
H   59.023674   17.439367   60.801971
H   37.207012   50.368134    2.189480
H   90.132431   33.476860    6.629924
H    2.854401   46.308823   97.736229
H   43.659615   47.948116   88.281601
H   31.718943   99.447510   80.495049
H   17.544018   10.189978    8.527828
H   64.920082   55.937271   37.895454
H   89.585991   73.131470   58.481384
H   65.024857   90.286148   20.634636
H   38.890877   74.075790   52.821190
H   79.119202    3.929226   71.910820
H   44.751060   41.068092    2.492024
H   97.674255   28.808844   89.588722
H   90.109436   56.954353   56.318989
H   71.709846   85.264366   92.195183
H   44.454678   74.624657   24.563801
H   69.246521   23.667114   84.767044
H   86.609192   81.841232   65.948326
H    0.363953   78.822128   64.491539
H   92.966705   20.422798   87.017601
H   73.317665   71.955421    8.713763
H   33.382225   57.439045   68.284622
H   55.616524   43.937115   21.719576
H   15.893996   40.993046   16.575106
H   56.766903   93.124222   55.826466
H   42.460426   46.405102   65.876312
H   24.999441   75.198143   19.921837
H   44.129002   53.445763   51.514679
H   66.391663   83.044952   51.011086
H    5.734901   77.040771   51.650932
H   56.898247   52.352524   50.627449
H   85.107063   90.350571   81.063797
H    5.416788    2.550113   69.530746
H   97.941010   15.687960   58.660545
H   19.336527   80.579094   69.088646
H   38.814358   39.798943   82.861549
H   32.710674   57.299000   93.663979
H   58.403469   37.195805   74.407753
H   62.063774   39.601181   65.919502
H   18.404247   59.634300   82.644104
H   94.769592   93.464493   69.461456
H    9.036212    2.811902   79.423973
H   18.302402   70.447899    7.366567
H   26.088081   76.489288   25.288055
H   24.757629   60.337959   19.927292
H   29.932100   67.823608   64.975311
H   22.782257   25.353029   81.713364
H   20.642780   49.630764   48.305092
H   91.706566   36.462303   51.731533
H   88.161118   48.845745   18.399204
H   21.276691   48.734119   39.230110
H   19.661707   42.290234   20.915457
H   50.032700   15.856433   57.304398
H   28.768364    4.329375   59.069954
H   77.876472   30.135139   38.602837
H   16.642241   25.640659   23.576998
H   34.077263   91.999062    3.263166
H   96.617699   27.471109   47.247566
H   53.492180    6.027070   92.986931
H   18.199854   65.841347   33.818035
H    3.115216   24.324806   96.561760
H   90.198792   55.199974   27.707705
H   32.855869   57.676033    0.866917
H    1.037277   13.279080   76.110649
H    8.669788   45.597511   97.173233
H   52.650394   65.728554   50.566658
H   27.206701   18.790092   63.494446
H   12.433998   85.916534   33.894676
H   80.536789    9.293583   14.369256
H   93.845016   12.291182   52.958183
H   63.253212   88.883102   68.726067
H   92.495972   99.582832   34.177650
H   77.839264   20.942842   77.226334
H    9.251657   12.347650   91.351685
H   19.957483   56.073872   88.344505
H   56.583641   77.786629   50.067493
H   28.734085   35.080578   83.441910
