100
TIME:    1.348, STEP:  1348
H   26.162355   98.402939   97.911880
H   63.773170   77.832298   63.031673
H    2.925877   70.884651    7.512098
H   81.702866   77.112144   66.276360
H   83.097137   80.805672   29.154503
H    7.113188   99.747704   12.242331
H   82.321297   52.361973   95.868126
H   13.936157    5.221774   84.425194
H   20.491585   56.688705   15.234895
H   38.001808   35.738640   60.478401
H   74.867355   20.481953    9.903643
H    4.389172   91.259132   96.977425
H   57.514969   80.151421   91.148827
H   88.336815    0.921157   59.824589
H   96.896523   49.616680   85.975388
H   47.324463   93.830009   21.145004
H   15.690090   71.142380   96.087959
H   29.950455   29.147583   52.813766
H   66.255913   34.903931   34.380146
H   56.198914   77.187363    8.110697
H   84.284409   22.019516   20.657600
H   91.602776   45.879143    4.474748
H   67.746284   83.659019   93.781479
H   93.797691   52.848881    6.959463
H   81.372063   79.265938   46.508133
H   40.478046   87.442856   62.823723
H   45.839516   86.442581   26.715811
H   18.801506   19.359783   11.329757
H   40.482010   71.393127   93.452293
H   52.681316   57.476974   90.551079
H   69.128242   42.926575    2.743413
H   50.870670   15.269961   74.472969
H   65.310257   69.856224   19.235441
H   35.058006   50.186531   14.962395
H   47.265175   57.021706    6.813308
H   89.757843   90.376053   16.006056
H    9.090100   55.169777   14.682288
H    8.276972   34.281918   17.566616
H   90.119125   51.732170   12.927011
H   36.227051   85.988045   44.092197
H   43.119843    2.436417   74.102829
H   10.470634   72.358070   66.131424
H   22.851950   71.583496   98.841286
H   93.280891   35.362419   12.534675
H   39.726494   78.704727   71.462112
H   60.696438   88.627815   88.645119
H   50.313709   98.456650   39.141792
H   56.311405    9.262331   51.984524
H    4.435703   20.808228   90.701584
H   54.161663   51.266819   89.384239
H   43.441776   39.503166   67.629959
H   70.643272   38.654652   85.568100
H   36.842163   29.824890   24.579514
H   45.474850   85.211769   91.300735
H   33.445755   76.678329   11.844843
H   95.252884   11.115263   46.737701
H   81.708771   50.651100   84.193398
H   25.682964   49.585899   78.833817
H   96.591560   95.724243    7.996254
H   70.063538   31.399717   25.269249
H   44.733898   15.884341    9.295750
H   51.067993   15.398237   34.362160
H   65.668137   15.229843   41.080177
H   35.603836   49.127274   90.541451
H   85.826836   53.182247   21.097460
H   18.535347   75.260017   25.889631
H   79.415817   94.967316   32.144604
H   87.250084   94.630112   30.644796
H   24.085922   52.927643   75.688972
H   57.692131   15.943218   98.894623
H   79.226875    3.682501   45.980289
H   62.817265    6.787746   55.316742
H   19.099693   51.627529   27.183796
H    0.521683   64.077026   23.092949
H   27.164772   30.561743    3.585032
H   57.529064   93.966576    5.226924
H   89.344627    9.711046   14.886402
H   95.311813   62.579735   88.884720
H   26.165651   49.553562   32.719383
H   33.417160   35.538925    4.789825
H   37.261288   43.227337   60.555325
H   42.464962   53.031021   74.058426
H    3.089943   29.755518   58.290195
H   42.900745   27.511698   40.305092
H   86.692657   64.567444   17.078835
H   20.265972   58.570934   35.392586
H   57.184593    5.342354   87.820862
H   77.655304   97.370636   81.730415
H   83.656929   19.117758   17.171059
H   47.157303   53.816452   72.403877
H   79.188240   46.219265   61.929028
H   78.025307   96.888969   59.205406
H   71.774345   68.019882   23.200022
H   77.517464   94.998558   17.707779
H   33.287144   28.983955   47.061638
H    5.260878   42.499504   97.822784
H   55.604324   45.039318   59.664429
H   11.814544   27.715088   34.468628
H   44.496330   42.660992   32.135418
H   22.956772   44.079037   67.854195
