100
TIME:    6.163, STEP:  6163
H    0.544248   56.843651   93.503616
H   30.267368   38.828205   66.703712
H   85.700577   17.294838   51.000423
H   82.511047   78.734344    2.347031
H   39.969620   66.749054   98.601913
H   32.448963   94.531258   89.088860
H   29.967842   77.493431   72.407707
H   35.486649   21.780064   42.328007
H    2.129595   93.745972   12.147548
H    6.426733    4.875272   49.024113
H   26.987778   14.224028   46.097893
H   20.615753   32.609791   54.239784
H   50.793045   88.901222   12.634941
H   49.925682   86.079781   26.246998
H   55.461800   19.523285   54.523029
H   53.723251   72.690468   21.458225
H   28.515419   89.605614   34.430550
H   32.859890   94.947647   85.883827
H   41.257038   36.899185   88.053146
H   26.475555   74.932899   35.938286
H   98.555573   42.671581   89.969002
H   53.233154   52.265457   94.441925
H    3.457612   44.498940   56.020020
H   46.426693   10.555635   49.355915
H    9.160550   97.402283   82.055031
H   18.451891   44.466347   10.876911
H   30.636162   86.288589   22.249929
H   12.526080   44.107704   70.490860
H   45.179604    8.247797   65.843811
H   37.309238   38.305687   73.329514
H   58.610062   74.703133   21.781990
H   54.892796   82.234146   28.724251
H    4.469955   17.567915   53.008667
H   38.503746    8.920550   12.114145
H   27.576195   93.043587    0.011276
H    8.376886   68.141319    0.049683
H   70.910194   78.832642   94.085732
H    9.265436   46.168766   57.346233
H   84.930145   47.134697   47.071587
H   82.707443   35.223736   22.926065
H   14.054379   67.648247   87.543312
H   80.829849   65.771347   94.592064
H   64.326080    0.457793   46.633659
H   85.815338   16.088583   83.321129
H   22.061501   88.731827   83.494614
H   98.572502   80.466629    8.199068
H   89.883102   60.003006   84.623970
H   56.568554   58.846878   49.909428
H   45.179298   22.030479   98.628403
H   55.135303   24.536364   52.615570
H   43.078411   74.645523   18.394711
H    4.643248   91.859024   69.473518
H   36.711636   57.743896   44.931812
H   33.970642    6.645473    3.773268
H   50.087944   98.700287   52.768566
H    1.271768    6.050845   82.823730
H   86.959389   11.716033   42.140099
H   67.145905   94.867912   54.811020
H   76.339005   99.170357   38.348701
H   52.323433    1.495830   88.320213
H   48.467670   91.964127   33.879864
H   80.181007   70.577744   16.496887
H   92.466377   86.730751   10.855042
H   66.243088   75.335587   59.817257
H   76.943863   68.616592   69.502327
H   22.743519   35.891991   10.588325
H   93.099075   61.430805   64.611893
H   54.645226   70.005775   60.829639
H   64.067146    6.952446   73.700897
H   55.244469   58.124527   88.755615
H   26.330013   76.070435   88.219154
H   65.798538   46.987076    7.847404
H    5.151684   13.459953    3.726446
H   94.539223   59.361668   36.968437
H   59.312504   37.427433   68.595230
H   71.357445    2.562739   81.237335
H   26.515064   92.378029    0.043639
H   21.529278   47.737396   54.800415
H   57.049664   35.416050   86.442482
H   97.286209   73.291756   89.973289
H   31.472704   93.040726   48.336811
H    3.763203   84.438705   71.406029
H    7.697507   10.185758   16.875984
H   74.153389   39.540672    0.522991
H   52.242470   63.387398   50.318619
H    9.447124   35.430969   69.760605
H   78.767555   55.252480   17.419119
H   55.146996   11.903826   31.677071
H   83.582382   51.025978   77.785408
H   21.446428   55.715061   44.528923
H   76.237999    6.216573   63.613079
H   34.298489   58.995728   50.954147
H   80.513718   12.439061   95.598831
H   42.897335   87.075264   42.360580
H   50.037773   97.684891   57.705082
H    2.960115   52.361176   49.122040
H   73.412468   21.362082   82.749405
H   26.381311   91.404114   55.157745
H   15.121770   63.416569   28.821281
H   22.019197   20.482704    4.038570
