100
TIME:    1.366, STEP:  1366
H   24.945139   96.752243   97.895401
H   63.272469   78.808159   64.167107
H    3.235236   72.179665    7.300732
H   81.705887   76.370567   65.289787
H   82.935913   82.248451   28.666435
H    6.834050   99.728203   14.024965
H   81.377846   53.577473   97.275749
H   12.521393    6.778965   82.772575
H   20.049110   54.958084   14.101827
H   37.509895   35.997093   61.183311
H   73.193039   21.206226    8.169794
H    3.702118   92.161385   95.696144
H   56.370056   79.062401   89.359703
H   87.445549    0.865664   61.194447
H   97.115425   48.008968   85.110214
H   46.600739   92.255669   19.650864
H   14.242950   72.332748   97.726845
H   30.335114   28.272247   52.189743
H   66.536339   35.659103   35.328403
H   55.714005   76.805038    9.336222
H   83.216263   20.227509   20.169052
H   93.328728   45.902901    2.942035
H   67.505959   83.512627   93.266495
H   92.125298   53.064762    5.622581
H   80.728264   77.838264   46.640930
H   40.395512   86.906448   61.136635
H   44.287285   85.694412   27.073004
H   17.282784   20.199963   11.924735
H   40.873398   73.026245   92.601402
H   53.371532   57.031479   91.982048
H   69.836311   44.540741    1.319096
H   52.007206   14.772658   72.806618
H   66.578079   68.539238   20.857023
H   35.818535   48.536934   14.204098
H   46.817757   55.661049    7.909332
H   91.322845   91.789993   15.944089
H   10.816533   54.510597   16.100592
H    7.533026   33.952465   18.836773
H   89.309982   51.347923   11.201779
H   34.531723   84.303017   45.508472
H   41.889786    3.054038   74.526901
H    8.852898   73.165840   66.977097
H   23.006994   71.691437    0.141513
H   92.131447   35.664131   14.294616
H   38.165199   77.994461   73.002396
H   60.464214   88.971138   88.718178
H   50.503773   99.427567   39.295601
H   56.312366    9.447657   53.098263
H    4.961828   19.317520   89.983627
H   54.539181   51.540791   88.125206
H   43.440403   37.765404   67.819748
H   71.518059   36.984318   84.386520
H   37.215561   29.929260   23.534096
H   45.058056   84.918159   92.095047
H   32.012726   78.256241   11.997587
H   95.275406   11.096346   46.124939
H   82.849976   50.131721   85.905342
H   24.342564   47.886040   78.370193
H   98.011269   96.484772    6.614380
H   68.875641   32.783306   24.757286
H   45.869335   15.047286    7.892349
H   50.429138   15.230661   33.547661
H   66.888992   14.002327   39.845314
H   36.839935   49.225189   90.052834
H   86.541222   51.744549   22.773767
H   17.429573   74.365181   26.953932
H   77.971664   95.589691   33.013622
H   86.006706   95.659531   31.505301
H   24.983093   51.634277   74.560127
H   58.056740   16.848562   98.856720
H   78.655312    2.457731   45.764408
H   61.333149    6.190331   56.634689
H   17.926010   50.737225   26.722233
H    0.125519   62.937889   22.023155
H   28.032623   30.587355    4.949585
H   57.954647   95.120140    4.015768
H   90.978844    8.150919   15.204903
H   96.157486   61.402687   89.878708
H   27.028490   49.500828   32.920158
H   32.534409   34.558533    3.239126
H   37.613537   43.413555   61.631161
H   43.815594   53.148575   72.553299
H    4.228865   30.055925   60.004612
H   44.139042   29.051981   38.660988
H   85.816223   63.441551   15.333944
H   19.851650   59.232174   36.642555
H   58.386772    4.033607   88.679169
H   77.945068   95.929504   81.543373
H   84.030464   18.115599   17.023773
H   45.565933   53.075836   73.047401
H   79.924873   47.191143   62.309155
H   79.357124   98.242760   59.548317
H   72.929283   68.559311   24.592607
H   79.257149   96.090324   18.921425
H   32.975956   27.371574   47.475273
H    6.747620   41.788689   96.893066
H   54.175552   46.072308   58.629242
H   11.880633   27.868347   34.180649
H   43.638847   42.738583   30.627682
H   24.074631   43.616650   66.120552
