100
TIME:    5.213, STEP:  5213
H   64.788490   43.962624   94.373367
H   56.504616   87.348404    6.801445
H   69.363754   48.947800   62.154980
H   82.351593   17.874783   54.421768
H   48.478683   90.602448   24.358681
H   47.183994   95.560463   95.006798
H   79.756279   13.343645   98.116394
H   10.154778   39.592381   29.553463
H   25.482445   85.084625   71.948128
H   32.381660   91.234322   11.823950
H   15.354462   75.998993   37.607044
H   56.877121   84.991524   21.861834
H   11.414658   46.350304    7.031973
H   96.964714   89.007942   53.952583
H   43.909325    4.381556    0.187215
H   91.919815   55.781021    0.316140
H    4.908625   26.770397   47.948303
H   12.544267   41.170948   18.816343
H   26.462666   97.043564   38.002743
H   52.067978   95.111122   71.257912
H   54.929909   37.246941   15.754887
H   62.155731   51.004318   75.343185
H   16.142967   52.225227   83.199738
H   34.694920   99.190887   19.910061
H   43.136749   72.743378   75.039040
H   22.782526   72.549850    0.211369
H   12.555670   25.778240    3.399068
H   92.684273   99.764938   39.087097
H   24.523018   22.056086   10.751236
H    0.883553   61.817955   97.807594
H   21.219063   89.515442   96.942970
H   94.909340    8.484092   16.670494
H   37.553890   87.074760   67.425163
H   98.362564   95.982475   52.135384
H   51.190613   64.857254   42.162971
H   25.794573   93.732857    3.037363
H   79.793182   13.624046   19.229168
H   48.528210   63.556538   90.308800
H   25.029606   67.834770   39.133530
H   72.186409   24.159431   48.182812
H   78.980286   35.053520   65.161720
H   63.105736   45.820564   47.708218
H   56.143459   94.760757   78.013863
H   46.475300    0.142765   90.435715
H    4.466955   26.213760    2.200557
H   10.832125   62.346821    4.339269
H   82.461227    8.338140   75.506081
H   56.517818   49.062180   91.128853
H   17.412498    0.710021   36.525200
H   35.209995   10.076544   19.060547
H   43.146900   66.361969    8.380324
H   58.474327   80.012314   31.838272
H   17.004528   52.235474    0.105530
H   55.968094   22.147690   61.851585
H   25.728428   15.447099   44.687130
H    0.088465    7.050153   15.163986
H   26.733620   39.127968   51.787163
H   37.884415   84.583946   79.280014
H    1.415837   59.031174   11.277763
H   15.015326   28.476574   15.340462
H   88.540375   36.143513    7.950120
H   13.897020   79.420212   59.484329
H   27.970522   51.557541   75.999390
H    1.006391   70.160568   85.606552
H   39.235397   44.490688   81.032845
H   81.103233   83.119469   54.416573
H   69.319702   28.590080   18.745975
H   20.268379   15.674239   15.414145
H   16.716467   75.213402   33.282425
H   36.001228   10.340387   90.756042
H   56.496559   40.707870   99.612892
H   44.131203   78.515549   38.293205
H   67.093979   60.448250   28.086716
H   15.451466   19.488605   93.415276
H   13.511502   36.072071   96.578339
H   48.898499   41.677330   45.160358
H   40.261578   74.718697   83.242943
H   76.896545    9.854675    2.333078
H   11.496278   38.206501   75.846016
H   43.870209   25.041382   71.816650
H   12.882080   83.212540   91.558128
H   32.463448   78.272415   50.869896
H   47.609421   94.299133   26.403334
H    8.796434   58.246872   87.290100
H   98.498726   22.808289   42.410454
H   31.314114    0.535478    3.789660
H   15.319220   24.325363   72.119461
H   39.866577   87.929611   41.530624
H   63.868027    3.921166   85.555183
H    5.438933   94.797409   10.570398
H   37.360130   54.917561   43.550823
H   64.008110   87.546997   32.856079
H   19.616655   83.937111   22.133869
H   51.084007   29.439772   78.303764
H   66.461571   82.780907   35.874332
H   24.494049   89.876434   98.190491
H   48.818718   66.844078   37.384796
H   26.000257   60.623260   72.614311
H   60.377777   59.321491    8.392952
H   63.008953   44.859188   95.555420
