200
TIME:    0.633, STEP:   633
H   21.547220   61.170712   22.059633
H   31.467110   38.615513    5.851610
H    9.900747   86.339699   64.705559
H   31.089975   81.567238   34.222843
H   11.037561   93.689774   48.008106
H   76.833618   42.148357   53.917126
H    9.053092   55.025284   57.258183
H   11.695537    5.856562   11.122629
H    3.388505   81.614464   38.132187
H   97.026886   69.393913   80.570976
H   25.891752    2.989414    5.380837
H   32.402908   52.512577   31.467800
H   20.819874    0.050716   45.184532
H   85.828537   54.865025   61.203396
H    0.647796   74.969925   42.011623
H   17.845184    9.773766   45.845165
H    2.695044   26.124632   96.351143
H   27.230192    2.059773   36.523712
H   78.101234   15.474000   48.269154
H   91.306564   74.307640   22.236095
H   62.801483   96.376472    7.835540
H   81.279839   63.836113   55.430016
H   83.236679   59.684029   39.706390
H   16.932405   91.642212   90.353760
H   20.328300   28.509859   31.387058
H   18.335772   79.777550   93.976685
H    6.506413   66.682426   64.883179
H    3.529645   86.341522    1.765369
H   27.620995   44.584297   36.037128
H   75.290184   31.292309   85.031372
H   12.848399   67.868233   16.675299
H   24.779480   72.717270    3.278968
H   17.627518   17.441952   77.979515
H   83.419701   64.006683   45.159523
H   29.128689   73.561935   31.229538
H   20.223812   40.961376   83.983002
H   97.544266   65.946663   88.905312
H   13.475756   54.921227   97.497490
H   38.525246   32.327850   53.167332
H   86.313820   38.072376   48.344818
H   80.621246   86.865074   14.568893
H   32.900558   34.865917   28.177797
H   69.625748   78.753891   64.921265
H   36.405746   82.321404   32.803818
H   42.204945   88.285561   58.546120
H   35.529331    3.610740   46.962029
H   87.380081    6.958097    4.795534
H   80.548080   65.544609   33.519424
H    2.279042   13.838414   61.449677
H   48.053627   19.575029   89.086235
H   68.859375   65.521851   12.293882
H    6.115121   42.462261   71.991081
H   62.776134   83.181824   13.065007
H   16.557558   90.477142   87.522964
H   60.564041   67.644737   78.063339
H    0.267673   62.668171   91.517151
H    4.308913   18.232643   45.438908
H   71.702316   67.715370   98.210030
H   19.888470   82.069290   16.631611
H   34.013786   93.782387   59.729225
H   49.146717    7.708870   30.754232
H   96.999657   17.355871   52.078873
H   82.274361   33.347618   71.626205
H   33.648186   65.713028   12.442089
H   77.665901   81.937851   34.000111
H   23.323250   31.829483   39.927414
H   71.495216   14.872242   93.954659
H   95.140633   92.343437   95.052277
H   30.501553   11.164079   57.005539
H   42.974709   48.479721   50.961605
H   58.292759   83.389397   83.793564
H   21.095320   13.491852   42.013840
H   89.966934   32.457363   86.335991
H   20.668839    0.326282   72.013893
H   83.930405    7.233334   49.133873
H   63.247299    5.201982   60.309383
H   93.766495   44.580654   66.586632
H   11.999095   13.126255   34.528923
H   14.518417   47.202400   26.234241
H   62.353928   88.475151   75.623871
H   60.047932   23.459949   95.299088
H   43.917229   61.522606   75.707909
H    9.466431   17.977180   78.781036
H   11.858360   74.710533    6.660222
H   24.913410    3.479652   46.644817
H   35.739124   72.023880   19.601818
H   53.469036    3.603034    2.672317
H   72.063286    3.917324   26.265291
H   77.714767   73.013771   78.586121
H   21.475712    3.662706   50.541882
H   24.768705   38.285431   79.006447
H   81.317932   91.983566    6.942990
H   65.929085   12.429785   84.536980
H   42.405052   80.314407   79.895737
H   35.082947   51.610123   84.307785
H   52.997017   36.495968   10.583673
H   84.636665    0.686066   15.254655
H   96.091156   34.545292   52.314526
H   28.112801   65.841194   54.273983
H   74.037674    4.313231   27.346354
H   27.400480   91.292419   87.445625
H    5.185880   82.602303   63.696793
H   31.325918   22.807365   35.994530
H   40.759926   68.665085    5.769086
H   24.817776   22.308071   37.829033
H    2.981725    7.531708   25.491116
H   84.275070   34.976601   54.430237
H   62.435455   49.363583    3.544952
H   82.784073   35.128880   18.136143
H   16.991293   22.580900    7.460707
H   52.365200   92.651657    1.072355
H    1.774169   73.227966   94.987701
H   50.268291   84.835152   85.387070
H   61.892906   10.924753   64.819550
H   50.735466   98.333572   12.992901
H   98.000000   94.300896   96.663643
H   16.416821   13.976543   88.761581
H   38.777210   46.340347   26.122826
H   33.787296   72.468498   64.116333
H   81.153931   54.518551   64.003204
H   44.656319   24.370998   74.641907
H    1.331991   18.170147   59.748310
H   41.711189    5.247434   35.687729
H   98.287178   53.176746    0.655155
H   65.156837   99.221634   79.815277
H   62.120434   73.104752   17.943306
H   85.618004   51.024918   55.877106
H   66.832397   90.652275   38.321751
H   97.304062   38.257988   75.934189
H   86.793724   22.286619   73.196930
H   64.473236   71.153412   18.430088
H   66.615295   89.949234   18.594891
H   91.154457    1.715157    0.298644
H   81.650154   23.079102   54.544025
H   23.840603   94.264053   38.357811
H   51.890831    1.122471   77.891785
H   69.543358   87.565971   74.902908
H   94.570503   51.950195   76.988785
H   56.585587   49.829613   71.457138
H   43.660828   90.241737   84.537491
H   70.073967   51.511517   27.604935
H   39.146240   52.951763   55.408356
H   42.371944   63.994514   86.128532
H   39.704979   12.301768   84.636848
H   58.774784   56.733238   61.919483
H   60.339718   68.746460   11.024014
H   54.026146   95.056740   44.467941
H   31.921341   58.789734   66.570213
H   75.691498   48.383869   94.037605
H   21.989649   92.965439   75.290016
H   62.368015   67.984283   48.377327
H   50.330776   96.235260   35.836597
H   94.432716   17.143665   89.668831
H   20.298651   10.163520   66.240860
H   29.196472   64.257874   67.862991
H   75.168686   44.503368   66.152077
H   63.424999   72.669716   85.409225
H   51.633495   30.354362   18.931322
H   94.394867    0.253531   88.030121
H   59.273598   40.908630   93.322784
H   57.816326   68.443161   72.966629
H   25.151970   21.019670   32.139347
H   82.136055   17.435225   37.068642
H   25.700378   31.724815   54.384892
H   55.191254   35.423534   13.686048
H   18.684725   51.934669   60.153503
H   68.132553   91.210457   56.387909
H   23.975525   48.813236   64.263779
H   99.413025   26.892162   35.928944
H   44.407597    7.493969   85.977783
H   71.857117   10.307500   35.943092
H   32.586403   50.849781   58.664951
H   45.266270   60.567215   79.366104
H   66.386597   65.137817   83.357262
H   53.171906   92.080170   80.752579
H   13.040980   49.783684   23.663788
H   31.380463   65.198051    3.347641
H    5.213089    9.575653   69.905441
H   65.551094   12.243431   64.538368
H   67.605804   58.670784   91.928955
H   74.242760   99.272675   32.581821
H   27.154560   30.585781   83.963280
H   47.540054   89.753181   13.852837
H   60.039433   25.947586   91.648338
H   90.605171   71.288750   76.777725
H    7.487734   39.539948   85.921120
H   45.036469   97.792938    7.973091
H   71.540428   83.871407   39.278133
H   95.237068   62.925941   71.034943
H   56.760143   56.135487   70.668289
H   66.594246   18.021992   76.495003
H   44.431187   95.609329   19.618639
H   12.829882   26.873636   66.809235
H   28.237751   79.215508   41.233429
H   71.408020   36.701485   20.530741
H   76.287613   11.347791   24.182081
H   12.073594   96.275520   16.731489
H   17.488018   89.595474   35.883305
H    6.672565   12.711540   60.440727
H    3.908799   21.677977   92.288795
