100
TIME:    3.508, STEP:  3508
H   80.090729    0.319941   95.934341
H    3.688245   94.942459   99.283646
H   40.054085   26.283222   82.162666
H   82.065414   88.119926   47.878307
H   63.750214   53.939175   70.588455
H   73.624763   97.407616   26.154745
H   69.114616   98.213676   64.783104
H   44.164413   92.088882   86.101006
H   67.394600   49.013535   79.271400
H   78.976738   66.753044   45.060455
H   73.949417    7.394578    1.841538
H   21.949509   99.528793   43.225395
H   20.118862   49.468567   76.461876
H   81.385521   94.263222   24.200253
H   23.171616   56.678513   82.146461
H   60.475494    4.906527   41.847023
H   42.014717   13.998374   92.735428
H   76.105186   24.106789   77.927429
H   99.907036   25.517939   48.176365
H   98.009270   31.320078   55.173576
H   56.107025    6.984255   62.027046
H   98.695724   48.740906   20.539642
H   38.907173   66.091881   31.983379
H   93.110268   78.754639   46.539440
H    4.118545    7.956688   62.447182
H   30.572683   23.083296   60.365234
H   59.580982   96.652908   69.576820
H   36.547123   20.181274   82.727837
H   87.448563   67.365189   91.347816
H   35.504807    4.016578   62.264465
H   54.118481   36.624775   31.837151
H   87.254555   55.587006   74.510933
H   17.455931   11.820518   13.825299
H   26.323097   52.235451   23.964184
H   93.571060   93.742088   38.340660
H   77.564445   60.057995    8.577893
H   16.262192   76.064926   84.882072
H   19.000549   94.750191   69.990303
H   96.997559    4.985079    4.361298
H   32.779339   83.776199   14.036001
H   95.505325   76.550613   24.992659
H   16.342125   69.300812   67.610062
H   41.457294   84.536377   54.859356
H   55.349335   71.564423   23.727919
H   52.362026   93.484436   56.299984
H   32.829617   29.826527   97.412209
H   69.140915   15.614659   59.138008
H   56.426762   31.501406   85.633110
H   67.569687   41.916580    4.537501
H   99.450890   84.133308   38.309963
H   43.276981   30.969135   90.404617
H   75.615128   38.222977   43.768848
H   81.643410   42.349304   99.129646
H   95.458092   49.972054   86.615387
H   61.481155   66.017029   30.183893
H   97.955521    8.844412   73.206207
H   18.644358   88.324669   89.627357
H   64.843254   45.600525   23.197746
H   66.944221   86.989883   42.172260
H   27.527184   97.423706   63.834724
H   80.987801   15.434525   40.884174
H   74.408836   95.290115   36.628868
H   12.217988   67.903496   92.916374
H   83.927849   60.877151   31.898396
H   71.562523   80.666206   22.254045
H   85.843269   67.879768   53.604141
H    6.114765   69.641113   36.429241
H   38.044319   18.163523   33.905285
H   31.740440   97.723831   40.217327
H    1.458985   24.584425   94.346283
H   10.636984   56.715614   20.067513
H   84.716354   35.101562   13.460654
H   78.263138   44.785427   71.804680
H   52.989101   27.385830   94.721153
H   31.306765   33.639553   67.328163
H    8.586942   32.402206   59.884472
H   85.458778   22.496170   53.090122
H   96.792542   21.340609    8.172621
H   29.734190   43.214626   56.823242
H   27.486519   17.900078   18.703751
H   79.525131   65.573532   89.654099
H    4.532945   67.137466   93.440308
H   39.750072   65.812134   64.019562
H   91.495041   12.345953   43.014877
H   81.518539   29.456997    7.691166
H   70.557434   37.908928   85.389282
H    1.446108   48.292747   90.818207
H   12.424089   24.435211   59.260689
H   28.485302   98.852898   99.499886
H   56.184933   64.949051   49.618912
H   67.584412   62.851871    7.544351
H   37.850212   59.326241    0.369207
H   10.324035   32.774551   90.283470
H   86.289253   26.018383   63.343636
H   95.937965   35.504528   96.697868
H   83.667984   57.203987   86.256035
H   84.154022   68.997551   35.441582
H   19.743353   46.106201   99.905342
H   41.600304   51.971905   51.205795
H   57.105076   88.612801   59.803818
