100
TIME:    3.160, STEP:  3160
H    3.624759   32.233147   96.252945
H   13.368998   76.075821   77.331863
H   34.072304    1.247606   86.246101
H   82.007004    2.457308   66.954285
H   66.867218   26.045437   80.024429
H   79.019783   97.784630   91.691154
H   87.354668   74.716667   37.569054
H   71.516525   61.981030   18.052799
H   75.949104   82.472214    1.175498
H   88.487053   61.756279   31.432192
H    6.319519   93.392166   35.362469
H   35.232620   82.085251   67.996819
H   42.254555   70.522949   11.051018
H   98.616661   95.335854   97.716591
H   18.938171   87.763596   98.873146
H   74.467499   35.344025   70.733742
H   69.998726   90.980499   61.055614
H   68.671104   41.029945   89.991882
H   94.485466   10.917933   29.843386
H    7.384735   38.709148   31.480097
H   76.757843   41.629723   71.473083
H   65.332626   48.278931   50.175079
H   43.553474   68.922142   41.939743
H   25.443298   74.580933   72.385292
H   16.564629   35.555717   59.877113
H   32.169544   33.452328   92.984627
H   89.588516   11.118892   62.673237
H   65.909264    3.937806   71.226250
H   79.881729   35.791580    7.797872
H   22.161610   12.630157   34.599060
H   40.421185    5.419308   59.369804
H   65.281532   65.201195    6.727011
H   92.943329   37.281197   82.474709
H   11.618415   84.127663   38.624527
H    2.221375   20.048523   17.150871
H   47.304195   32.719158    9.777482
H   82.883888   88.809067   57.460934
H   33.382843    1.117379   45.433292
H   11.686902   12.566515   38.084427
H   65.555801   16.354399   86.656654
H   19.288107   64.608292   16.793928
H   47.618370   53.682175   51.260391
H   38.459766   82.449524   29.724072
H   77.571930   65.733978   89.701988
H   82.548683    7.215162   26.520929
H   37.319271   23.188953   95.999733
H   66.422165   96.688629   55.795326
H   56.408176   27.918444   64.100822
H   57.397339   70.737541   18.419870
H   92.154869   78.839180   62.648617
H   43.303532   64.565918   86.735367
H   58.702595   70.515564   66.615074
H   74.427040   40.331482   19.341026
H    3.517605   55.651161   71.258698
H   89.189041   35.518532   27.224863
H   97.520096    9.210806   85.052948
H   96.582832   98.365990   56.529762
H   90.756340   78.464478   32.162430
H   39.498901   72.286331   68.889336
H   50.490532   70.676941   73.732674
H   59.036018   31.617687   68.016312
H   86.760033   98.529251   52.375847
H   88.592827   91.650078   16.779800
H   60.032143   58.984116   41.347645
H   57.749859    8.459567   89.845848
H    7.221429   85.179939   33.027664
H   34.036263   57.609928   19.627237
H   62.082954   98.260315   17.268873
H   14.395195   22.728874   62.044323
H   94.407532    7.080824   95.079071
H   21.688221   80.393166   24.242546
H   13.411050   46.650940   87.982269
H    0.953067   61.997982   80.725578
H   60.650623   49.409019   15.400352
H   14.528365   33.143063   40.947788
H    0.359432   10.098608   83.301361
H   53.863079   52.659538   46.935764
H   80.442871   44.096241   88.954575
H   13.047214   44.236813   52.938934
H   44.553047   36.853344   48.684341
H   72.717636   61.973309   68.854599
H   78.423019   64.864761   22.540438
H   17.731916   60.002930   30.874180
H   67.551987   82.566864   74.799133
H   98.462936   51.225582   41.425804
H   78.565002   25.125675   61.223202
H   78.203972   73.595177   74.224274
H    6.823305   52.297089   62.879494
H   21.262295   18.228567    2.346847
H   86.952087   79.264969   37.180099
H   53.342834   44.062229    0.195148
H   12.100006   33.155617   93.736992
H   88.016815   22.332319   63.372093
H   52.654446    4.909524   39.881142
H    1.954614   66.677002   88.700920
H   54.924637   70.946419    4.230736
H   11.776643   49.026424   55.455193
H   18.466284   43.143188    5.473660
H   58.178307   50.471813   80.353874
H   35.490482   97.544319   93.326553
