100
TIME:    8.499, STEP:  8499
H   42.569084   42.622185   91.364944
H   65.754745   65.414062   13.993747
H   25.860926   85.356354   23.574696
H   82.903137   82.491142   74.304512
H   19.040762   53.989582   35.261581
H   96.220093   92.000496   20.430103
H    7.538233   35.231316   55.086033
H   51.881653   23.873667   27.843681
H   44.706230   69.148453   65.106842
H   42.622139   38.418049   40.490944
H    9.698746    8.218331   21.083155
H   31.458183   49.701473   87.961296
H    1.796549   47.552887   80.499603
H   34.261055   78.879585    4.016835
H   83.834846   10.860245   42.183426
H   59.797012   68.375328   27.549873
H   40.668068   44.112988   47.085854
H   82.808990   81.277718    4.910002
H   77.638962   34.897099   11.123057
H   63.534939   25.328409   94.984077
H   59.934013   10.114460   26.567141
H   77.187752   55.366531   95.509949
H   72.268303   25.503454   89.183319
H   29.377924   38.500946   75.864990
H   25.610981   12.146500   99.306984
H    7.533655   75.552963   91.088333
H   29.200319   89.183487   68.603867
H   15.421040   53.144291   47.705154
H   95.973061   20.187780   55.419487
H   26.882015   80.489029   59.034607
H   50.545788   84.177330   36.965248
H    2.389446   17.694691   12.469032
H   69.016006   46.654778   63.453995
H   37.205627   94.840149   13.702204
H   69.439049   16.176414   42.138935
H   11.441275   51.109383   92.706886
H   94.963921   93.282478   78.153343
H   12.713490    3.414448   22.192375
H   86.326378   96.239891   20.696011
H   62.681686   16.535170    6.717793
H   54.404877   47.802353   42.577236
H   83.964401   74.931992   13.850217
H   84.429596   14.470770   15.365494
H   36.653988   55.301079   11.722407
H   19.430836   96.568733   83.393364
H   68.417229   25.017612   17.689425
H    8.138320   87.042244    7.048642
H   56.706356   82.906937   94.447533
H   13.466042   28.563026    5.444433
H    4.177811   60.093655   89.282433
H   42.918011   49.120110   43.020157
H   18.180124   75.095352   16.129814
H   85.162590   71.288818    9.263407
H   79.873444   68.539124    6.854231
H   64.091896    3.416095   72.632645
H    4.181253    3.593600    3.300781
H   35.051430   44.311516   64.313072
H   93.203064   74.261467   94.639427
H   60.574139   97.880898   59.018654
H   98.173363   81.049744   21.878807
H   95.823624   83.328125   51.746326
H   97.271782   48.834579   10.801207
H   51.058407   27.326796   50.668518
H   26.650509   88.060684   96.389679
H   69.664703   82.043274   87.043518
H   79.241982   19.762718   48.711567
H    5.677455   42.194294   77.393600
H   93.281555    3.603717   72.503952
H   80.491486   39.102394   27.190071
H    2.635064   75.526199   83.817368
H   52.148495   17.128330   60.202553
H   73.394638   69.399803   79.018784
H   52.840668   97.916649   43.836460
H   43.111408   11.518581   98.172493
H   71.876633   40.829540   45.701481
H   26.578356   52.279846   24.054838
H   38.673660   90.190063   41.473518
H   31.275770   94.995979   83.813110
H   69.069664   28.554478   12.505085
H   82.726677   46.038963   88.724846
H   77.197289   17.208414   87.956558
H   79.053909   99.587769   75.977104
H   55.455917   49.251499   39.345173
H   34.867157   39.437355   87.165062
H   38.500061   17.257801   23.870476
H   55.689610   21.235500   31.979691
H   34.783848   85.405617   28.808403
H   92.716331   24.975372    7.456562
H   32.064457   20.961519   58.679939
H   14.912766   59.606255   28.036261
H   71.836784   32.352161   12.945457
H    7.138834   34.685013   95.468941
H   30.255665   82.529320   76.245300
H   68.660233   28.797352   99.873360
H    9.647587   88.440750   11.384792
H   95.904114   60.115601   28.464714
H   87.991936   55.418861   48.403572
H   21.872278    6.991155    8.262854
H    3.840393   73.502937   33.157215
H   67.115540   60.532970   79.004791
