100
TIME:    0.098, STEP:    98
H   10.695306   13.034150   99.056290
H   98.544136   10.058159   84.182343
H   81.448212   80.954460   22.189186
H   81.493057   28.613203   34.791389
H   94.293274   80.612656   63.048088
H   26.496674    1.106991   88.450706
H   47.833645   67.956230   98.116211
H   12.183691   97.080841   99.195351
H   51.218971   76.871048   93.917946
H   72.162422   17.794266   11.526300
H   91.139313   70.185776   30.309937
H   52.101498   28.602730   85.953606
H   37.028664   55.778275   15.388753
H   50.229664    4.775110   64.699135
H   81.694954   61.267494   46.062252
H   97.582245    3.165884   24.905117
H   16.187059   88.478004   82.277489
H    3.238981   89.934784   96.148727
H   46.790314   82.464752   68.524261
H   89.996620    3.477503   22.873774
H   58.461090   46.461662   54.581390
H   71.744667   44.229286   10.910746
H   84.435585   93.825188   29.547142
H    9.936314   37.857121   99.795761
H   26.077730   78.401009   37.281937
H   46.205280   24.693726   79.985161
H   53.628742   38.403461    1.911034
H   24.271690   61.013485   70.015457
H   13.302054   57.983212   52.539520
H    4.751796   88.414169   91.179680
H   19.956789   30.830423    1.657141
H   71.945160   49.802559   90.191750
H   77.261414   61.312019    6.625569
H   82.242805   64.741577   67.622795
H   78.335884   51.512161   30.696037
H   81.075737   92.184196   20.307127
H   89.199348    0.945365   16.186699
H   59.937866   57.160564   29.357050
H   46.315311   78.415977   32.733932
H   53.962337    3.008307   45.744804
H   28.544468   59.541462   44.647099
H   22.813492   16.254831    7.404513
H   12.085834   64.087616    8.552217
H   73.101639   14.414197   90.313492
H   48.154274   28.025318   64.493713
H   76.699821   65.046440   83.702599
H   37.114857   31.027210   28.460638
H   56.244648   96.391006   74.641632
H   67.891960   24.332958   40.565094
H   27.945158   32.241016   76.810196
H   43.532726   60.183525   54.457821
H    9.895951   54.645866   67.629593
H   10.912228   22.576965   97.177895
H   74.415436    5.603304   36.140217
H   32.957863   67.096893    1.237756
H   93.688858   12.429340   89.290649
H    2.465437   86.719063   65.308052
H   18.762552   67.631645   11.030687
H   98.006874   42.909760    3.959537
H   52.555054   35.320564   60.814598
H   65.882645   74.012436    6.755569
H   95.432922   27.033188   90.920044
H   80.880653    0.470216   26.834930
H   49.769302   42.327576   24.480062
H   36.211357   53.017735    4.687367
H   95.325203   37.401295   51.980389
H   79.705711   51.749500   71.793686
H   73.596199   23.142094   70.887566
H   61.788383   42.744667   54.087124
H   32.372078   53.073685    1.524686
H   18.920851   88.736351   60.972050
H   65.885460   48.273109   63.797962
H    0.601482   13.459782   59.236790
H   28.033905   43.178417   97.384178
H   66.895187   28.783140    8.826821
H   27.974699   13.853048   89.335587
H   75.853271   18.050163   92.766052
H   36.584549   44.312244   19.852116
H   66.251823   53.212978   18.781189
H   94.719345    3.616470   12.478313
H   12.799854   30.294886   85.846039
H   48.677128   44.867569   78.585876
H   23.996769    8.893081   39.233795
H   56.912270   20.547581   54.478981
H   47.559067   42.755295   38.252190
H   49.042698   12.649150   48.590176
H   73.699913   96.227516   28.216213
H   57.532776   97.448067   94.719460
H   57.716988   88.716026   27.399216
H   57.670448    5.254849   27.715158
H   28.033144   78.722595   35.531322
H   85.537636    2.877233   35.392159
H   91.572212   30.567888   26.496424
H   56.700630   19.176619   33.426609
H   54.897404   40.951717   18.339237
H    2.015968   91.861687   62.387093
H   54.823448   73.304436   31.552834
H    7.225187   17.072083   54.467178
H    4.043591   37.272732   36.842686
H   45.327648   76.185631   88.247055
