100
TIME:    4.971, STEP:  4971
H   81.154213   66.155312   94.594925
H   63.188271   74.235886   91.543030
H   65.202164   31.537086   64.995811
H   82.310974   27.845798   67.687019
H   50.646255   71.205078   30.919556
H   50.937550   95.822639   71.041649
H   92.440453   97.002533   79.191681
H   29.175499   18.657032   51.773846
H   31.431267    8.352020   87.180214
H   38.995155   87.759560    2.346940
H   37.864716   66.261536   60.916752
H   66.113808   72.861244   39.087395
H   26.857224   60.984184   31.078369
H    8.946918   89.753853   35.535606
H   40.966301   25.997480   11.820250
H    1.650029   76.947159   20.404678
H   24.368996   10.764554   25.918089
H    7.369483   52.944889   27.205069
H   22.693417   86.892532   25.253946
H   58.587311    0.251212   54.781410
H   69.290535   61.339485   22.323147
H   38.954956   50.683060   95.951736
H   19.374016   54.193398   90.123413
H   57.181171   96.295868   37.883301
H   51.792267   91.933960   73.251808
H   23.885698   79.702469   22.968042
H   33.423691   35.838230   98.597511
H   13.103608   88.469193   31.087023
H   19.261024    0.100332   22.190071
H   91.604034   67.807396   78.569008
H   11.694646   67.813873   16.089241
H   79.629250   15.170054   39.073662
H   20.507500    4.780714   45.623894
H   88.137680   18.160126   62.330727
H   57.205902   83.150528   27.427544
H    4.758550   74.778603    3.798514
H   56.581917   22.487274    0.160809
H   58.529690   67.984184   73.230400
H   35.245258   73.107841   62.585403
H   94.980995   46.815224   29.141920
H   95.519562   26.750647   59.460308
H   84.855309   34.958702   36.340466
H   54.058971   93.309555   60.533333
H   61.927097   96.080872   66.773361
H   25.458616   35.761047   81.492210
H   13.954702   57.731037    3.355490
H   80.570602   95.177147   73.183418
H   56.504894   46.569656   76.155251
H   10.339272   20.751820   46.179573
H   30.134480    6.393148   35.985703
H   43.165363   89.725220    5.829180
H   46.713310    2.467302   47.725800
H   11.984771   50.832275   14.160616
H   61.571655   26.096954   51.172508
H   44.996857   94.238289   42.628490
H   99.786057    7.304713   23.402237
H   11.392463   46.110725   28.771019
H   55.904434    7.437841   85.513168
H   82.328773   48.806290   29.856293
H   30.984119    9.874967   22.223518
H   73.275055   47.396793   26.817795
H   22.485147   81.672714   70.433731
H   11.541101   68.070969   92.594055
H   84.389503   68.842300   92.175735
H   29.629255   63.819744   58.496738
H   95.969749   95.150047   40.107643
H   88.735535   20.223511    7.061599
H   36.984901    1.833435    3.845145
H    4.654872   92.601982   48.460968
H   31.099096   98.168457   91.265625
H   64.180916   57.173294    2.515953
H   64.084320   86.547012   20.574730
H   82.872574   72.419197   34.292175
H   20.778080   34.804531    7.793984
H    1.844064   35.726810   78.233368
H   43.176773   26.166800   61.442997
H   18.289179   95.692818   78.963188
H   65.526947   25.678505   88.969200
H   99.891838   38.917332   73.146706
H   55.737976   38.222225   92.665222
H    8.146748   80.708939   77.094109
H   14.304997   76.691971   71.105492
H   32.301636   90.252014    3.356055
H   92.146866   37.538620    9.393508
H   10.282426   37.946213   65.869713
H   36.884441   91.647270   86.984436
H   99.156563   41.920731   60.580002
H   35.970856    7.304611   44.047150
H   58.846054   17.395052   87.534431
H   26.835165    4.753616    1.919796
H   27.456505   41.851200   38.440228
H   46.102558   69.346039   28.245832
H    4.104241   76.677147    3.419627
H   27.693718   14.760148   61.986271
H   70.645317    4.456963   30.313515
H    4.505818   99.432953   10.690424
H   68.027763   52.956112   51.302307
H   25.112181   58.562775   76.487877
H   71.906158   58.278324   28.663628
H   47.978115   51.068340   18.868040
