100
TIME:    1.342, STEP:  1342
H   26.568094   98.953171   97.917374
H   63.940071   77.507011   62.653194
H    2.822757   70.452980    7.582554
H   81.701859   77.359337   66.605217
H   83.150879   80.324745   29.317192
H    7.206234   99.754204   11.648119
H   82.635780   51.956806   95.398918
H   14.407745    4.702710   84.976067
H   20.639076   57.265579   15.612584
H   38.165779   35.652489   60.243431
H   75.425461   20.240528   10.481592
H    4.618191   90.958382   97.404518
H   57.896606   80.514427   91.745201
H   88.633904    0.939655   59.367970
H   96.823555   50.152584   86.263779
H   47.565704   94.354790   21.643051
H   16.172466   70.745590   95.541664
H   29.822235   29.439362   53.021774
H   66.162437   34.652206   34.064060
H   56.360550   77.314804    7.702192
H   84.640457   22.616852   20.820450
H   91.027458   45.871223    4.985652
H   67.826393   83.707817   93.953140
H   94.355156   52.776920    7.405090
H   81.586662   79.741829   46.463867
H   40.505558   87.621658   63.386086
H   46.356926   86.691971   26.596746
H   19.307747   19.079723   11.131431
H   40.351547   70.848755   93.735924
H   52.451244   57.625473   90.074089
H   68.892220   42.388519    3.218186
H   50.491825   15.435729   75.028419
H   64.887650   70.295219   18.694914
H   34.804497   50.736397   15.215160
H   47.414314   57.475258    6.447967
H   89.236176   89.904739   16.026701
H    8.514623   55.389503   14.209521
H    8.524954   34.391735   17.143230
H   90.388840   51.860252   13.502088
H   36.792160   86.549721   43.620106
H   43.529861    2.230544   73.961472
H   11.009880   72.088814   65.849533
H   22.800268   71.547516   98.407875
H   93.664040   35.261848   11.948028
H   40.246925   78.941483   70.948685
H   60.773846   88.513374   88.620766
H   50.250355   98.133011   39.090523
H   56.311085    9.200556   51.613277
H    4.260328   21.305130   90.940903
H   54.035824   51.175495   89.803917
H   43.442234   40.082420   67.566696
H   70.351677   39.211430   85.961960
H   36.717697   29.790100   24.927986
H   45.613781   85.309639   91.035965
H   33.923431   76.152359   11.793928
H   95.245377   11.121569   46.941956
H   81.328369   50.824226   83.622749
H   26.129765   50.152519   78.988358
H   96.118324   95.470734    8.456879
H   70.459503   30.938520   25.439903
H   44.355419   16.163353    9.763550
H   51.280945   15.454096   34.633659
H   65.261185   15.639015   41.491798
H   35.191803   49.094635   90.704323
H   85.588707   53.661480   20.538691
H   18.903938   75.558296   25.534864
H   79.897202   94.759857   31.854919
H   87.664543   94.286972   30.357962
H   23.786865   53.358765   76.065254
H   57.570595   15.641426   98.907257
H   79.417397    4.090757   46.052250
H   63.311970    6.986885   54.877426
H   19.490921   51.924297   27.337650
H    0.653738   64.456696   23.449547
H   26.875488   30.553205    3.130180
H   57.387203   93.582054    5.630643
H   88.799889   10.231089   14.780235
H   95.029922   62.972084   88.553391
H   25.878038   49.571140   32.652458
H   33.711411   35.865723    5.306726
H   37.143871   43.165264   60.196712
H   42.014751   52.991837   74.560135
H    2.710303   29.655382   57.718723
H   42.487980   26.998270   40.853127
H   86.984802   64.942719   17.660469
H   20.404079   58.350521   34.975929
H   56.783867    5.778603   87.534760
H   77.558716   97.851013   81.792763
H   83.532417   19.451811   17.220154
H   47.687759   54.063324   72.189369
H   78.942696   45.895306   61.802319
H   77.581367   96.437706   59.091103
H   71.389366   67.840073   22.735826
H   76.937569   94.634636   17.303230
H   33.390873   29.521416   46.923759
H    4.765297   42.736443   98.132690
H   56.080582   44.694988   60.009491
H   11.792514   27.664001   34.564621
H   44.782158   42.635128   32.637997
H   22.584152   44.233166   68.432076
