100
TIME:    9.615, STEP:  9615
H   67.098785   40.280128   90.343216
H   34.932602   25.886578   84.361748
H   45.043880   65.645515   10.474386
H   83.090454   36.513359   13.131166
H    9.040594   43.441635    5.004414
H   78.918823   90.791451   30.951191
H   49.047138   10.588206   42.358700
H   64.166260   20.421963   25.376144
H   17.272820   61.848907   94.857094
H   12.137796   54.442158   84.186867
H    5.891122   53.121414   13.581793
H   88.862846    5.640863    8.523163
H   30.633118   80.005104   69.594727
H   79.004425   75.439766   88.945518
H   97.389778   11.173622   88.515160
H   14.924480   70.765854   34.912170
H   50.925941   17.928886   48.679733
H    6.678153   26.972847   66.221268
H   95.025375   81.714584   69.917358
H   33.470577    1.628569   70.966515
H   93.708496   99.013802   96.275528
H   84.179764   56.848038    0.472237
H   57.368095   16.431356   57.254303
H   25.685390   51.851532   92.980530
H   85.697372   23.642723    7.545223
H    2.269450   42.653305   86.067711
H   32.966469   42.793118   90.741318
H   21.256159    5.235403   84.593315
H   20.240246   21.439993    2.666499
H   69.674904   52.868301   47.753242
H   94.465691   84.251282   48.670898
H   72.854324   86.859573    9.155327
H   47.625710   65.003220   63.992088
H   84.358398   92.565392   66.686760
H   41.665062   31.679543   10.036571
H    8.453123   38.521732   89.198952
H    2.003017   52.413338   66.089737
H   66.584175   82.995750    0.946010
H   39.220211   71.922752   12.547611
H   57.567173   12.058278   94.522659
H   78.134521   86.096542   68.869713
H   89.913795   79.309006   70.820793
H   94.033844   21.166862   95.974754
H   65.401161   74.036720   20.837330
H   22.623785   52.543278   78.894211
H   54.016762   46.302227   22.223345
H   16.863667   47.737400   17.765703
H   56.774471   94.401382   63.498890
H   46.084724   36.135784   60.929802
H   27.602011   77.086449   11.251678
H   44.819614   41.526543   51.747406
H   72.417969   71.539154   42.871315
H    8.306961   77.759766   44.448692
H   54.027000   50.328934   56.099373
H   75.234138    1.216917   82.117691
H    5.571230    2.419677   65.309494
H    5.802092   12.109781   70.453941
H   10.103450   68.868950   65.894798
H   48.594570   45.039085   73.342445
H   24.528332   66.830124   90.137123
H   66.226044   31.429613   64.741066
H   57.662773   38.447006   60.308830
H   26.825184   51.176636   74.142746
H    3.284221   94.139969   66.095428
H   13.958011   92.908455   90.971397
H   10.685156   64.283470   14.698651
H   16.139000   80.776764   31.275101
H   16.192139   67.429512   25.855209
H   36.112610   58.913757   57.197994
H   25.300629   31.580843   81.450363
H   16.704868   41.192989   46.817909
H   81.494957   32.345116   60.820187
H   80.076218   42.712536   15.219547
H   18.547352   40.886677   31.862322
H   25.634562   42.472820   30.317251
H   52.964493   23.803684   48.961227
H   40.030220   93.597092   61.269508
H   83.702217   22.027534   45.451256
H   22.588133   25.276432   24.961061
H   27.996399   85.244301   92.580482
H   99.045250   28.753946   54.658882
H   62.796532    6.832036   82.612602
H   26.043039   67.915077   45.627514
H   11.646176   34.935989   85.235710
H   84.161133   47.443352   15.687724
H   30.001652   62.231239    9.478036
H    9.319033    4.263085   82.023430
H   10.663815   35.675392   95.888504
H   55.223637   58.824318   49.552498
H   16.243460   13.688072   67.927505
H   17.508749   92.612640   36.513329
H   89.711533   18.619390   16.731531
H    1.793654   16.011976   62.547295
H   74.537636   96.353073   78.161919
H   90.352234   88.476265   37.027138
H   88.081146   16.046587   70.821609
H   99.409233   19.463448   84.220398
H   19.718134   62.208973   85.854515
H   50.676537   78.322090   39.680866
H   36.435837   31.899014   71.497147
