100
TIME:    1.834, STEP:  1834
H   93.296783   53.834152   97.466934
H   50.254219    4.180901   93.688469
H   11.279654    5.849726    1.806247
H   81.784439   57.089561   39.635517
H   78.744080   19.760700   15.977617
H   99.576668   99.221184   60.373707
H   56.849163   85.178078   33.874046
H   75.737511   47.265697   39.802483
H    8.544777    9.961809   84.643456
H   24.721178   42.716881   79.507957
H   29.660812   40.037342   63.088360
H   85.841492   15.619356   62.382851
H   26.602001   50.747887   42.844116
H   64.272636   99.422951   96.807457
H    2.807649    6.207169   62.615486
H   27.783905   51.321701   80.803482
H   76.616608    3.282351   40.335785
H   40.336243    5.513156   35.965134
H   73.827415   55.293594   59.983097
H   43.106369   66.864609   41.199867
H   55.444473   73.637390    7.466797
H   38.203800   46.520607   63.094315
H   61.257484   79.706413   79.876907
H   48.643059   58.677677   70.866302
H   63.989494   40.721001   50.093658
H   38.249607   72.959854   17.271746
H    3.930526   66.242020   36.360020
H   77.793900   42.044628   27.394171
H   51.049484   15.486960   70.478233
H   71.317146   45.448593   29.185921
H   88.246101   86.509064   64.285339
H   81.557129    1.842993   29.481483
H   99.541458   34.297600   63.018158
H   55.592278    5.647623   94.488266
H   35.184883   20.283974   36.405945
H   32.014294   28.553904   14.335000
H   55.702843   37.371925   52.977299
H   88.188805   25.386700   51.860851
H   68.272263   41.357506   66.347717
H   90.451149   40.490368   82.329849
H    9.908310   19.112478   85.552780
H   66.791718   94.167854   88.964584
H   27.038153   74.497894   33.945335
H   62.245888   43.508644   60.051991
H   97.569939   59.528408   13.050344
H   54.426403   97.897530   90.617714
H   55.445423   24.674463   43.294624
H   56.337360   14.266123   82.055473
H   18.640730   80.557274   71.316757
H   64.354515   58.664051   55.391285
H   43.404697   92.582329   72.754257
H   94.262505   93.557404   53.664249
H   46.923904   32.642883   96.353447
H   34.221416   77.284309   12.746080
H   94.754822   19.282854   15.968939
H   95.860977   10.604502   30.193115
H   12.520168   36.627876   30.416204
H   89.493744    3.688636   66.315994
H   34.920334   16.259302   70.687103
H   37.993336   68.756195   11.446557
H   75.390701   93.283028   71.401848
H   33.818909   10.873690   12.370843
H   98.631241   82.088020    7.738639
H   68.977966   51.770996   77.348793
H    5.115820   14.365195   66.358978
H   88.679848   51.099434   54.625744
H   40.423691   11.769717   55.608105
H   53.678886   22.425816   53.878407
H   48.309540   18.006775   45.207863
H   67.537903   40.388092   97.871246
H   63.794655   70.615364   40.151493
H   22.745714   90.658051   90.898521
H   87.411072   27.589306   14.721592
H   89.827995   33.320122   94.208488
H   50.595284   31.253263   40.427959
H   69.018181   25.114424   72.523766
H   33.470001   67.589096   23.483702
H   18.144985   30.799517   15.724126
H   49.462296   48.129734   38.140312
H    9.582621    9.069937   62.920448
H   46.772015   48.255230   89.602898
H   78.930496   56.204971   33.419998
H   33.839947   37.867859    4.579364
H   76.333382   69.099342   95.914276
H   63.028931   34.166557   69.966736
H    9.079281   76.421822   69.141762
H   89.643425   70.006180   10.995464
H   85.478943   58.460083   76.677681
H   93.742378   92.058403   13.195005
H    4.187706   33.819824   89.779030
H   99.077339   72.461166   72.192459
H   13.984661   33.439693   68.465782
H    2.957504   82.584457   60.798416
H   24.490635   24.477888   50.475174
H   24.883503   85.450989   58.229790
H   45.402481   23.308329   72.720398
H   17.028202   72.930031   31.714386
H   13.598964   31.853088   26.691925
H   21.345146   44.755947   91.425674
H   53.138962   31.594646   21.045410
