100
TIME:    4.195, STEP:  4195
H   33.631012   37.318390   95.305374
H   84.620155   32.184654   42.614174
H   51.862946   75.709267   74.101402
H   82.180725   59.816399   10.220206
H   57.596817    9.005252   51.960541
H   62.973743   96.663338   94.190727
H   33.110737   44.604710   18.507471
H   90.167564   51.522038   23.022663
H   50.506828   82.961182   36.026508
H   60.202065   76.617348   71.962982
H   10.046341   35.037296   35.666027
H   95.727699   33.964149   94.324821
H   76.375534    7.909847    8.185867
H   47.368874   92.145699   76.481903
H   31.529018   95.313385   49.123318
H   32.853348   44.819084   84.819275
H   86.770119   59.436077   55.275749
H   90.781090   90.697670   54.108356
H   10.606899   54.340363   84.371140
H   79.496666   16.730658    1.947756
H   15.339462   38.592106   43.383408
H   64.559082   49.652908   62.035278
H   29.734734   60.504555   12.325776
H   29.280571   86.994110   95.515259
H   79.547150   53.475853   67.520851
H   27.423143    2.638755   95.940056
H    0.338892   68.097794   83.204445
H   78.579529   52.248123    5.434494
H    2.386696   29.694916   58.872139
H   61.848053   87.013206   16.879059
H   81.155510   98.229790   77.483894
H   30.631941   36.607918   10.911858
H   65.848732   61.556068   75.715683
H   55.350449   89.276093   95.023232
H   76.494598   41.810356   80.174255
H   37.301487   13.999619    6.239912
H   82.153824   50.906235   39.014820
H   90.605461   82.181328   18.471531
H   68.002167   90.016533   37.785255
H   68.070473   19.461174   68.089233
H   48.552917    0.126383   41.178082
H   54.598434    0.130705   99.886566
H   47.374828   88.656113    4.483615
H   11.480093   83.074524   90.899658
H   92.770576   66.375946   15.088134
H   23.966419   42.930012    0.200940
H   74.508102   52.976463   65.735542
H   56.463451   38.577103   28.140724
H   87.654709   85.019806   77.134888
H   13.859271   94.584648   90.260963
H   43.224567   64.643333   97.648224
H    9.002104   74.475235   98.666901
H   95.889519   46.332764   59.231525
H   79.545219   38.760712   16.930161
H    6.782174   26.227900   36.027233
H   98.815109    8.121099   49.819107
H   62.195103   68.501717   54.966881
H   13.687308   80.721504    5.500957
H   21.127722   16.017616   89.430748
H   82.191849   50.230488   44.294807
H   24.324640   83.484886   87.320747
H   50.025871   88.895615    5.542550
H   58.860043   21.023853   45.806725
H   31.102209   64.615128   13.244274
H   98.828255   25.795940   86.230904
H   43.639565   33.726845   94.224945
H   50.996017   93.395111   69.596786
H   90.588295   57.453934   66.747856
H   65.982162   48.360382   97.128632
H   15.377447   59.140373   92.899658
H   88.821663    9.971796   11.825420
H   28.070511   12.301286   63.761349
H   33.470184   10.805470   54.190674
H   37.862438   83.911934   53.901176
H   64.427254   34.619694   19.407534
H   24.829424   76.433678   13.659643
H   47.834106   62.952831   65.239677
H   29.069057   76.420525   46.114799
H   62.676353   41.196690   64.491066
H   93.794373   80.485725   59.518211
H   92.964066   72.680862   30.713701
H   56.081764   71.624100   35.994629
H   83.214638   77.280304   29.453045
H   38.759407   71.134224   80.268234
H   48.067963   86.484917   41.094147
H   54.746319   63.146240   33.096863
H   47.329292   98.342239   23.577436
H   23.480810   69.432426   52.116669
H   42.742538   60.601204   93.881111
H   95.443863   36.682388   74.177017
H   95.699249   99.950294   22.052530
H   88.683945   10.986753   13.460577
H   54.361107   53.388954   43.410320
H   52.691135   67.691864    9.666342
H   84.060966   73.967613   12.483907
H   40.411407   30.074718   50.771797
H   29.622673    8.423039   95.930359
H   22.264463   51.955597   88.908897
H    8.873039   54.933292   93.661110
H   99.779655   70.980751   93.622192
