100
TIME:    4.892, STEP:  4892
H   86.496742   73.400032   94.667252
H   65.370125   69.955353   86.562134
H   63.843697   25.853718   65.922798
H   82.297714   31.100800   72.016975
H   51.353851   64.872879   33.061478
H   52.162884   95.908226   63.218258
H   96.581154   91.668442   73.013779
H   35.384743   11.822673   59.027607
H   33.373238   15.947676   92.152672
H   41.154106   86.625237   99.253357
H   45.213104   63.082783   68.526474
H   69.128624   68.901360   44.710793
H   31.898392   65.761360   38.928223
H   12.858434   89.997353   29.523455
H   40.005562   33.053894   15.617851
H    4.826629   83.856766   26.962597
H   30.721687    5.539405   18.726408
H    5.680129   56.788448   29.943537
H   21.462959   83.578766   21.092150
H   60.715523    1.928874   49.402718
H   73.978508   69.204010   24.467331
H   31.381149   50.578186    2.679297
H   20.428780   54.835899   92.383621
H   64.521683   95.350800   43.750801
H   54.617828   98.198654   72.668373
H   24.245825   82.037415   30.396894
H   40.236259   39.122463   97.030434
H   19.769348   84.781738   28.475428
H   17.543266   92.932762   25.924236
H   88.574753   69.762627   72.288643
H    8.585353   60.729755   22.339470
H   74.641121   17.352570   46.387093
H   14.942839   10.560560   38.506950
H   84.799805   25.400024   65.658958
H   59.169571   89.122299   22.617218
H   97.891220   68.591057    4.047030
H   49.005096   25.380642   93.935898
H   61.794636   69.429512   67.655220
H   38.580120   74.829216   70.241180
H    2.422095   54.211227   22.926348
H    0.918705   24.040205   57.599102
H   91.955376   31.412939   32.629505
H   53.378498   92.835815   54.827362
H   66.971634   94.754883   59.049263
H   32.311253   38.877724   74.732079
H   14.974056   56.224232    3.034353
H   79.953415   90.880943   72.425194
H   56.500675   45.755981   71.267174
H    8.030243   27.294369   49.331207
H   28.477596    5.190718   41.510857
H   43.171391   97.352066    4.996369
H   42.873970    9.797968   52.912224
H   10.346120   50.374207   18.748838
H   63.400917   27.386177   47.686363
H   51.286865   87.314217   41.956455
H   99.687210    7.387814   26.091583
H    6.384294   48.390221   21.257484
H   61.787003   14.898493   87.547958
H   76.097832   45.468414   35.921379
H   36.197063    3.802592   24.470467
H   68.291748   51.070385   32.977013
H   25.288710   82.408035   74.007874
H    6.177777   73.461716   98.011322
H   78.965004   68.411957   94.320221
H   26.493593   70.129059   51.139912
H    0.822821   99.077385   35.436546
H   95.073761   17.492275    3.247339
H   42.441948   97.315323    0.068489
H    0.717389   98.278419   53.415947
H   29.498568   94.195312   91.431976
H   66.689445   62.548370    3.463696
H   70.598541   89.168854   14.790706
H   88.023438   76.327248   36.317924
H   22.516933   39.804111   12.487686
H   98.035042   35.614101   72.244720
H   41.308937   21.103632   66.758713
H   11.116484    2.539867   77.566078
H   61.815380   30.844135   84.606697
H   96.103127   39.149380   72.265526
H   59.612274   42.525059   99.471161
H    6.600847   79.891647   72.372383
H    8.377376   76.176041   77.711327
H   27.304468   88.930847   95.832672
H   86.711517   30.778433   16.608833
H   14.129149   42.887932   73.527901
H   38.702854   88.745766   81.498459
H   93.880333   47.664673   56.812988
H   34.699112   13.629427   44.868660
H   57.206650   21.793417   88.180550
H   33.819889    8.004097   99.095703
H   24.223503   37.585735   36.771893
H   40.257359   63.404404   26.740835
H   99.040321   74.306038   97.310410
H   20.057831    9.968205   56.660015
H   72.011086   11.533485   28.498417
H   97.980698    2.552488   14.771004
H   74.298485   48.422436   55.845627
H   24.822271   57.890137   77.752388
H   75.669556   57.937786   35.280914
H   43.071354   53.095295   26.478312
