100
TIME:    0.644, STEP:   644
H   73.771400   62.963234   98.556412
H   83.356178   39.661884   18.623472
H   90.829254   20.235867   15.778252
H   81.584702    6.116613    4.862755
H   89.402802   24.376961   48.243370
H   18.029991    0.512735   42.523182
H   19.218868    4.822696   40.814411
H   69.269165   44.315685   49.064682
H   37.797249   24.375534   59.550797
H   57.241066   25.631935   32.908577
H   40.351715   92.155411   77.715660
H   31.260754   55.971046   47.088097
H    2.298188   22.744675   61.119720
H   23.194599    3.091667    6.247929
H   88.334999   12.499478   19.815462
H   75.630127   55.409046   79.582504
H   72.289909   24.585739   31.989328
H   14.906119   63.382935   77.220016
H   55.292404    5.368349   97.292236
H   75.216896   92.029663   60.123009
H   26.060669   92.104767   39.764175
H   24.098866   44.949944   64.421272
H   77.145699   89.384605   13.924013
H   59.206955   44.405521   59.246841
H    6.551269   35.100468   41.314285
H   43.706074    8.420922   28.811445
H    6.545534   15.706319   12.745596
H   78.201714   86.498932   88.061050
H   25.174393    7.520935   26.729584
H   25.686827   74.900803   34.584286
H   41.434879   79.793465   58.451042
H    6.419766   34.718742   39.645760
H   15.719963   21.363997   55.813560
H    5.312408   14.703824   44.620079
H   64.764198   10.238761   63.942085
H   28.548706   35.075268   18.428419
H   41.566929   80.951027   59.209972
H   37.372543   47.167171   67.885567
H   21.768009   66.760490   80.402695
H    2.536209   51.894619   88.702751
H   91.231766   78.277565   57.514790
H   73.742119   40.761345   33.056232
H   16.787985   67.361816   47.989464
H   38.235153   23.564047   43.699226
H    0.793650    6.483123   11.216143
H   69.726524   75.310600   85.843742
H   42.880116   60.482517   33.126167
H   56.273808    2.013947    8.424956
H   83.854729   79.112839   18.784178
H   39.396526   40.551487   38.622292
H   43.495487    7.469267   60.207111
H   36.429405    3.980183   31.784599
H   22.238161   25.742859   65.468971
H   61.776119   96.695168   60.234333
H   89.490677   14.960936    5.870844
H   94.372025   11.855131   70.703522
H   37.078224   70.964577   17.237343
H   78.105164   16.069237   96.966629
H   41.067413   65.979126   62.044376
H   16.521957   77.288208   45.292686
H    0.324245   48.621162   64.183136
H   76.054321   21.951096   66.217743
H   17.914726   63.237617   89.377052
H   87.261726   45.297684    9.654516
H   57.885231    9.408472   55.536331
H   61.783394   10.257923   84.264168
H   35.899742   70.625519   98.153915
H   35.880409   54.368393   96.989525
H   88.998741    3.512584   19.841320
H   43.431877   80.535301    0.376529
H    1.581525   51.585697   54.423649
H   20.866598   30.152534    3.771772
H   65.001816   86.451790   45.236042
H   16.016006    8.625542   64.933769
H   93.222092   29.560034   50.217701
H   40.884045   48.847588   52.595852
H   25.425648   70.727654    2.429535
H   62.236618    8.610767   50.006809
H   92.420433   51.616062   24.869286
H   67.942551   73.881783   65.440002
H   23.484432   35.944134   18.479038
H   89.642921   48.433365   32.927521
H   58.542980   18.006250   91.237762
H   94.470551   67.269508    4.607826
H   20.972113    8.600492   85.323952
H   36.470562   32.709118   86.504478
H   10.166037   56.528877   54.251522
H   66.322296   53.733742   89.045845
H   69.047554   58.315117   22.931557
H    9.397926   82.786240   47.234936
H   50.377689    8.206354   47.061840
H   25.936434   43.940727   45.793785
H   26.603767   46.926575   68.736382
H    9.472277   52.296890   70.239159
H   45.458042   92.043579   30.884090
H   47.113358   70.300285   34.185646
H   11.484909    4.638329    0.151740
H    9.229705   21.720947   45.731812
H   78.033440   39.626324   91.107124
H   79.236038   62.163509   35.659897
