100
TIME:    2.332, STEP:  2332
H   59.618561    8.165065   97.011002
H   36.401466   31.181677   25.101767
H   19.839788   41.677048   95.961861
H   81.868027   36.572594   12.337793
H   74.283539   59.677601    2.475363
H   91.856209   98.681664    9.691248
H   30.750729   18.804886   72.818291
H   36.595695   90.349854   94.077065
H   96.302925   62.081100   53.296787
H   11.113489   49.867424   99.006676
H   83.338074   60.075581   15.119780
H   66.836700   40.581650   26.934362
H   94.924248   20.618340   93.347343
H   39.614281   97.887978   34.706516
H    8.865494   61.723541   38.675224
H    7.759409    7.763865   39.465591
H   36.578125   36.215889   85.676300
H   50.978470   81.295387   18.699020
H   81.585869   76.184494   86.221436
H   29.690552   56.289745   75.106056
H   25.892441   24.059254   93.949463
H   85.951462   47.179749   20.686905
H   54.608467   75.656212   65.629013
H    2.373439   64.650391   33.879471
H   46.177727    1.225835   53.767715
H   35.966145   58.120754   70.592812
H   60.988815   45.539288   46.242359
H   35.774666   65.289589   43.855755
H   61.877884   60.669197   46.936913
H   90.413124   33.123215   68.775932
H    7.836946   31.168966   24.880993
H   13.000982   88.081871   83.379158
H   34.620319   97.862556    7.881932
H   76.633568   60.008865   73.507767
H   22.804901   82.638733   66.729607
H   75.312698   67.676201   12.623353
H    3.468548   19.133280   92.217896
H   67.603447   16.271847   87.004341
H   46.639435   30.605104   18.324064
H   43.544941   93.868935   21.510706
H   75.874046   36.199986   97.285446
H   22.034332   16.518448   12.360901
H   31.327719   77.484253   69.915245
H   30.444681   51.856010    8.744945
H   54.371174   39.881512   55.666725
H   48.001553    7.396107   92.639015
H   59.949467   51.660065   47.842049
H   56.363956   19.393465   12.868828
H   33.196381   39.312847   51.450890
H   74.795372   66.242805   20.561832
H   43.366703   44.504234   78.005081
H   18.463484   47.347263   20.970081
H   57.254578   35.530457   67.432121
H   22.690121   69.161110   34.720367
H   55.110626   62.941647   20.193922
H   96.484085   10.081129   13.240021
H   44.089809   22.258400   77.780006
H   52.411224   56.659073   53.489090
H   74.196114   37.302013   32.454018
H    5.131719    7.032431   97.282967
H    6.804670   70.121651   32.574665
H   16.145626    6.237425   89.838440
H   32.410519   48.128639   73.573898
H    3.173116   54.479996   63.830341
H   24.882469   74.591736   12.735444
H   58.086769   26.342293   84.071388
H    0.467316   28.986639   79.650955
H   19.278770   50.907043   77.685684
H   73.129875   82.223686   13.972741
H   77.629211   65.437569   96.822601
H   47.981392   36.730782   34.176937
H   81.682800   74.130493   27.359434
H   54.941071    2.957546    1.951717
H   78.870415    1.805266   64.610863
H   74.605614   31.961859   78.179184
H   80.788841   57.033096   39.015553
H   78.685883   24.424322   32.292637
H   41.541927   98.236443   43.228252
H   73.339355   46.668911   43.696960
H   85.159615   81.948883   20.017189
H   56.517574   53.407269   19.366943
H   16.295425   59.457291   91.776711
H   65.348526   46.181030   52.011326
H   10.590104   11.713839   50.427399
H   38.780914    3.015350   21.691071
H   97.617493   94.712318    3.724326
H   22.903738   33.797531   34.742157
H   93.495758   18.588776   71.495247
H    4.077416   64.330101    9.121058
H   60.159229   13.329453    7.582138
H   19.457703   99.353592   82.709305
H   50.834110   70.890923   77.956779
H   34.909061   97.508652   99.324722
H   72.625038   54.686749   84.053078
H   16.272076   40.843605   69.673698
H   86.535202    3.643738   46.998199
H   77.499283    1.509368    3.073864
H   15.427444   36.093262   18.722603
H   97.622520   46.902630   49.709145
H   84.066391   18.803837   73.080719
