100
TIME:    8.324, STEP:  8324
H   54.403801   58.670616   91.525162
H   70.587967   55.930737    2.959381
H   22.852846   72.765945   25.628815
H   82.873764   89.700920   83.896187
H   20.608889   39.962559   40.006683
H   98.933105   92.190086    3.099261
H   16.709705   23.413958   41.400806
H   65.636307    8.734309   43.912140
H   49.008064   85.973938   76.121780
H   47.401955   35.905308   33.638985
H   25.976822    1.176982   37.939781
H   38.137909   40.929577    0.418170
H   12.955940   58.144585   97.891190
H   42.926140   79.418983   90.699730
H   81.709297   26.492111   50.598839
H   66.833221   83.681419   42.076447
H   54.740486   32.538624   31.154913
H   79.067917   89.793266   10.975981
H   74.912598   27.555141    1.903796
H   68.250534   29.044783   83.069252
H   70.318764   27.536755   31.316916
H   60.410328   55.134216   10.412750
H   74.604805   26.926050   94.190109
H   45.638535   36.407440   88.861282
H   31.869469   26.025322   98.014565
H    8.359066   80.711960    7.556400
H   44.291328   96.457352   65.132492
H   30.187052   44.975880   41.919975
H   92.167900    4.310669   63.692039
H   20.172249   84.820236   45.122406
H   43.657780   68.484047   50.810692
H   91.339836   22.529247   28.669670
H   56.689167   59.458809   47.688614
H   29.811401   10.877739   21.074202
H   73.794289   29.426384   31.491163
H   96.229141   37.401459   93.256966
H   78.178490   99.691170   64.363976
H   19.946480    6.617140    9.843627
H   93.712395    0.053055   37.654564
H   79.165268   32.918091   92.949463
H   66.365097   41.798210   38.454311
H   98.712402   74.245728    4.916158
H   82.923553   13.421013    2.725351
H   47.827808   52.362427   94.612091
H   34.610641    3.472061   68.418388
H   70.676292   21.680420   16.978460
H    6.770040   77.525337    5.368159
H   56.695675   81.104492   83.619514
H    8.351105   43.056015   12.425568
H    0.504499   57.430042    1.517797
H   42.930027   66.015022   41.174988
H    9.674837   91.333374   27.618061
H   81.533669   70.274109   19.427191
H   83.926941   71.393661   99.132339
H   78.025459   88.080414   71.145294
H    3.963291    3.777683    9.258194
H   23.957718   49.361031   47.669167
H    6.233905   90.787880   99.146873
H   46.771420   90.486870   72.453369
H    9.721513   67.599503   26.856224
H   84.784653   91.467163   65.390297
H    3.482911   50.463455   18.719498
H   39.176960   39.268585   62.668793
H   14.633545   87.107391    1.140402
H   62.719040   96.019562   70.746750
H   89.992561   28.462517   38.364201
H   19.718470   36.144756   68.944809
H    5.370090   93.595268   64.137939
H   71.770325   51.676781   38.166290
H   99.080849   66.735611   84.188538
H   57.706699   29.035812   62.301399
H   87.806183   75.210350   66.190720
H   64.250809    6.573096   48.323879
H   46.963299   22.594269    8.570169
H   63.446533   40.571857   32.432819
H   22.440744   41.063301   35.829926
H   22.779716    5.336356   38.369308
H   23.054621    6.438168   74.146667
H   60.677475   29.068508   10.552103
H   91.308983   55.571892    3.801228
H   73.771309   15.397958   77.497040
H   65.921432   98.452896   90.618294
H   44.386238   46.324863   22.678570
H   22.827656   24.462042    3.149177
H   47.020950   28.204647   40.834496
H   59.717739   14.807448   19.827209
H   23.095995   98.129539   20.463753
H   89.901848   38.979362    9.271072
H   28.432209   30.704733   60.111214
H   30.385107   66.806168   21.780443
H   64.675072   22.903347    9.249778
H   94.190605   21.523693   92.133751
H   19.037785   77.279533   62.712280
H   51.747597   18.180286   88.073357
H   12.673691    4.115650    7.363673
H   81.449844   67.026306   37.503639
H    1.882723   45.375908   58.467888
H   22.210070   98.332054   11.776285
H   12.176782   72.747246   47.815762
H   56.245747   65.023361   95.862320
