100
TIME:    0.218, STEP:   218
H    2.580377    2.029678   98.946426
H   95.206123   16.564354   91.751923
H   83.509979   89.587883   20.780190
H   81.513199   23.668898   28.213591
H   93.218445   90.231186   59.794304
H   24.635864    0.976385    0.334268
H   41.544888   76.058647    7.500457
H    2.751928    7.462368   88.177895
H   48.269142   65.333572   86.364845
H   68.883003   19.516830   16.225702
H   79.977203   75.014267   18.750946
H   47.521114   34.617744   77.411736
H   29.395756   48.518143    3.461908
H   44.287891    4.405123   73.830605
H   83.154305   50.549416   40.293514
H   92.758270   92.669197   14.943745
H    6.539483   96.413795   93.203392
H    5.803242   84.099213   91.988571
H   48.658905   87.498322   74.846893
H   86.748329    0.961176   31.060419
H   51.340118   34.514946   51.324860
H   83.251015   44.387672    0.692695
H   82.833412   92.849236   26.113457
H   98.786942   39.296329   90.884018
H   21.786196   68.885017   38.168167
H   45.657795   21.115387   68.738823
H   43.280537   33.414753    4.292206
H   14.146873   66.614685   73.981522
H   15.911536   68.870659   46.866913
H    9.353007   85.444199    0.719445
H   24.677248   41.591530   92.161308
H   79.522064   46.487434   79.082741
H   85.713562   52.532112   17.436117
H   87.312996   53.744263   62.567253
H   75.353096   42.441116   38.002861
H   91.509087    1.610538   19.894224
H    0.708458   96.551613   25.642712
H   54.978455   54.964214   37.824764
H   40.920109   75.854332   21.232162
H   42.660152   91.774605   55.186638
H   20.344090   63.658588   47.475163
H   12.028580   21.640879   13.042102
H   13.119235   64.807220   17.219776
H   65.438675   16.425154    2.046820
H   37.745644   23.290668   74.762268
H   75.167229   67.302299   84.173180
H   38.381947   37.500904   29.486029
H   56.251057   97.626968   82.066559
H   71.400261   14.394909   35.777802
H   30.461943   34.067493   68.416641
H   43.527233   48.597527   55.716671
H   15.727403   43.510307   59.751900
H   13.401318   23.272766   90.208900
H   71.637726    3.645220   41.435627
H   23.404335   77.616302    2.255994
H   93.839005   12.302998   85.205566
H   10.072783   83.256538   76.721016
H    9.826706   56.299248    7.939638
H    7.470901   47.979950   94.747299
H   44.632996   44.544502   57.407921
H   73.452225   68.431381   97.399384
H   91.173889   25.916245   85.490967
H   89.019691   92.287209   18.602509
H   58.009964   42.980347   21.221701
H   40.974846   43.433079   15.862752
H   87.953377   31.435719   59.075726
H   70.078026   55.897755   77.587143
H   65.307014   30.005344   76.624260
H   67.768944   34.122231   46.560574
H   34.802803   59.109756    1.272344
H   15.109968   80.571678   59.532841
H   55.991184   44.290565   72.583382
H   92.777359    7.524418   56.159702
H   25.392609   35.584118   90.252220
H   72.681320   28.953886   17.923779
H   30.811918   21.543936   81.260635
H   86.748047    7.649319   94.890076
H   42.222366   36.466175   26.479176
H   72.003166   52.862331   20.119232
H   88.834335   97.081154    2.140353
H   15.147953   31.536798   93.018280
H   57.680576   45.651260   68.551697
H   31.589695   10.896026   50.663239
H   65.167450   30.816135   43.518288
H   41.715256   35.248016   26.619701
H   46.277805   17.059702   56.922390
H   81.714439   87.502541   33.938259
H   59.464539   87.840523   93.472511
H   60.207222   82.034508   26.417313
H   47.061317    0.317339   32.004864
H   32.944035   85.202698   38.065502
H   94.416420   11.902044   37.678230
H   99.271797   34.163345   35.780144
H   68.299110   26.455519   41.517124
H   52.822819   30.202511   21.096348
H   11.927536   87.122917   56.188972
H   45.298302   80.191032   24.651588
H    7.665670   18.093811   52.547318
H   98.327202   37.790005   26.791111
H   52.780041   73.103966   76.689438
