200
TIME:    0.755, STEP:   755
H   25.295961   60.765820   24.145758
H   32.554382   40.396572   10.804464
H    7.343746   91.679619   70.714714
H   35.202240   82.993202   31.032574
H    9.742256   96.781845   46.254040
H   72.864746   38.837086   50.306141
H   10.820655   54.938721   59.619587
H   14.429488   11.124347    6.792246
H    8.342793   79.785469   35.155998
H   92.732239   67.684967   75.758812
H   30.144049    5.595487    9.236153
H   32.907394   55.768932   37.281002
H   23.814213    4.100045   40.184349
H   80.062317   55.379749   67.082237
H   94.757767   75.909088   41.711445
H   14.289172    4.747055   43.213367
H    8.433812   31.838495   90.427620
H   24.333353    7.925005   34.351723
H   82.160393   11.057303   50.065105
H   91.694702   72.632225   17.506771
H   64.265610    2.466532    2.246276
H   78.563805   68.499352   50.728615
H   79.583344   58.796989   36.779068
H   19.516500   92.754501   89.971207
H   25.630989   33.416500   27.033772
H   18.234781   85.191933   89.947311
H    8.869061   69.130394   69.788422
H    6.329688   91.374283    2.086385
H   32.759399   40.876045   35.322750
H   69.777138   34.560715   80.811188
H   12.689118   72.965218   16.824457
H   22.560951   75.576645    6.282782
H   14.679718   20.067001   79.469704
H   79.381950   64.139786   47.291954
H   23.273811   68.520798   30.301311
H   16.238651   38.179722   85.381973
H    1.045843   63.313469   89.821205
H    7.441126   58.077057   92.012367
H   34.010002   27.959421   55.879177
H   85.143822   37.570683   43.579193
H   80.657547   81.165871   18.618320
H   38.973007   32.307652   24.560064
H   67.429092   75.951294   69.451401
H   36.133957   88.246788   37.166878
H   46.373470   92.007774   62.948738
H   33.812496    0.435689   48.288864
H   89.679123    0.980996    7.470206
H   77.577942   65.542747   29.133560
H    6.997255    9.208800   61.537636
H   43.687775   20.125589   83.925026
H   65.957184   63.977676    7.459023
H    1.451532   44.562115   74.614037
H   66.067223   79.694168   14.658397
H   14.741746   93.051697   89.329620
H   55.400040   64.931496   74.117737
H   98.703911   59.662197   95.512085
H    3.960744   18.694313   44.130222
H   73.035202   70.551476   96.007790
H   17.314148   84.426041   19.582203
H   31.192108   93.097328   57.473930
H   48.751598    5.328617   27.189554
H   99.192589   17.644880   53.014313
H   85.635429   35.874702   67.510269
H   36.604362   65.887085   15.166035
H   79.627068   83.756607   38.989124
H   18.537380   36.569054   42.120346
H   66.938087   12.298735   96.475227
H   94.457436   92.620811   97.467667
H   34.840958   12.812734   55.461365
H   42.272430   50.606102   50.955090
H   58.239239   85.499489   87.056900
H   17.666536   10.285177   41.159843
H   93.839005   34.566525   82.250771
H   24.643528   97.644684   75.565773
H   85.415939    9.208230   43.397438
H   66.330994    0.894828   59.512165
H   93.250839   49.122425   64.860954
H    7.480470   15.347809   30.357140
H   15.446808   52.636772   23.528881
H   60.515160   87.794746   69.838104
H   65.225891   21.398026   93.487778
H   49.281815   59.328278   71.936363
H    8.990450   19.315418   75.211472
H    7.879950   78.699883   10.636404
H   20.568966    4.769768   43.187412
H   39.176052   67.755295   17.062168
H   58.936939    3.857255    2.952018
H   71.048729   99.376663   30.866865
H   81.449081   73.310692   79.025452
H   20.864651    9.131423   49.199688
H   19.654734   39.338615   78.463799
H   80.468124   93.053970    9.605015
H   71.725090   11.053850   81.062355
H   36.934357   75.931335   83.245636
H   38.174088   49.959839   89.388947
H   47.944710   39.223637    4.847554
H   86.291603   96.465950   20.508926
H   92.737534   36.440838   53.469631
H   25.348366   64.619072   54.706333
H   76.158936    6.295514   27.376139
H   32.843716   94.665588   93.190437
H    9.722183   84.448051   63.023834
H   33.854866   18.348667   37.699265
H   46.622017   68.890335   10.614060
H   24.656052   20.704792   41.784409
H    7.811865    1.558619   19.779114
H   90.054321   36.491455   53.862457
H   61.716423   54.047764   98.827492
H   85.884521   33.588894   24.035465
H   20.910368   20.879889    8.057806
H   53.970341   91.591492    1.158191
H    6.672560   76.295837   96.377365
H   48.149357   86.250877   82.733398
H   61.479637    8.294584   61.673840
H   46.664207    3.413708    8.715124
H   93.021225   90.732262    2.167443
H   11.400707   15.694426   90.183823
H   38.158237   52.345314   23.684166
H   38.420284   77.048897   58.087158
H   84.373520   56.953487   68.554749
H   45.929634   25.181713   70.644180
H   96.068291   15.280056   63.336956
H   44.652473    0.101949   39.307091
H   96.489830   48.786694   95.312462
H   61.506294   96.201233   75.780319
H   66.590065   76.442551   15.587698
H   82.585503   51.594559   51.165466
H   64.163834   91.609123   39.352131
H   98.805420   33.841873   73.153931
H   92.707008   21.708368   75.275375
H   69.398026   66.797333   23.092396
H   61.932510   91.159256   21.471951
H   90.756081    7.650548    1.206460
H   75.667992   26.207008   56.045383
H   29.867443   92.058090   32.751686
H   48.641457    0.965896   76.094437
H   69.745338   87.876854   80.976288
H   95.611122   48.140953   75.061127
H   59.774460   51.535744   71.428284
H   43.726913   84.390816   81.147568
H   76.113838   47.923801   31.545883
H   33.529877   56.658619   58.252373
H   38.450077   66.239571   82.013527
H   34.114677    7.885537   86.658516
H   64.509361   52.687111   65.908829
H   64.809906   70.848175    5.180975
H   56.911583   94.522469   43.594398
H   28.590057   54.248428   65.870262
H   78.952972   43.290142   92.824791
H   25.878706   94.297394   70.724510
H   58.068249   70.056213   47.456314
H   55.466389   92.859299   32.013393
H    0.100275   12.581882   85.386284
H   23.523592   12.963906   63.225922
H   34.034233   67.480255   70.069885
H   78.790375   44.805874   69.905937
H   64.702042   76.328636   86.853806
H   53.368015   28.396919   21.789534
H   88.811081   99.793793   83.505569
H   57.905807   35.930786   98.004639
H   59.014713   63.486725   69.722839
H   19.423679   20.387434   31.082439
H   87.387550   12.116014   37.017914
H   30.178623   35.308807   49.165508
H   54.023117   39.563206   14.884784
H   20.786673   48.052826   59.486595
H   66.031769   89.237190   57.681236
H   24.082100   54.363979   69.308640
H    1.070974   26.495415   35.640865
H   49.975094    6.573305   84.603943
H   69.526428   11.758363   35.932854
H   28.371601   46.318249   59.039593
H   47.623486   55.324562   75.933365
H   64.884308   62.220089   86.187782
H   47.501556   91.162415   75.016144
H   16.806786   50.443783   23.784115
H   30.127159   69.009621    8.450680
H    6.294372    9.692001   71.465439
H   62.430862    9.407209   63.111763
H   61.802532   59.979469   93.649979
H   72.015388    3.644795   29.745436
H   29.615326   30.734707   88.417091
H   41.922295   89.623802   16.270088
H   62.696362   26.173302   96.136589
H   92.182854   65.997231   76.275101
H   10.041707   40.569397   86.531715
H   49.284576   95.703323   10.676327
H   65.679268   89.039131   43.547184
H   91.703804   63.469986   72.429260
H   58.978672   55.471836   72.209671
H   72.421898   13.985638   75.623787
H   43.431057   98.924789   18.064692
H   15.539749   29.776060   69.604385
H   26.106483   84.084450   43.692101
H   67.221344   31.252230   20.131666
H   76.585464   11.647155   22.510622
H   12.884542   99.602150   20.849287
H   13.942353   87.170776   32.442654
H    5.045668   13.052906   54.984459
H    2.636328   17.544588   90.593834
