100
TIME:    0.173, STEP:   173
H    5.623461    6.156374   98.987625
H   96.457878   14.124531   88.913330
H   82.736816   86.350349   21.308563
H   81.505646   25.523012   30.680193
H   93.621506   86.624237   61.014473
H   25.333668    1.025362   95.877922
H   43.903172   73.020241    3.981356
H    6.288839    3.569387   92.309441
H   49.375328   69.660126   89.197258
H   70.112785   18.870869   14.463427
H   84.162994   73.203583   23.085567
H   49.238758   32.362114   80.614937
H   32.258194   51.240692    7.934500
H   46.516056    4.543868   70.406303
H   82.607048   54.568695   42.456791
H   94.567581   96.605049   18.679096
H   10.157314   93.437874   89.106178
H    4.841638   86.287552   93.548630
H   47.958183   85.610733   72.475906
H   87.966438    1.904799   27.990427
H   54.010483   38.994965   52.546059
H   78.936134   44.328278    4.524474
H   83.434227   93.215218   27.401089
H    2.967954   38.756626   94.225922
H   23.395521   72.453514   37.835831
H   45.863102   22.457264   72.956200
H   47.161114   35.285519    3.399267
H   17.943680   64.514236   72.494247
H   14.932981   64.787865   48.994141
H    7.627553   86.557938   97.142052
H   22.907076   37.556114   95.722252
H   76.680725   47.730606   83.248619
H   82.544006   55.824577   13.382161
H   85.411674   57.868256   64.463081
H   76.471642   45.842758   35.262802
H   87.596581   98.075615   20.049063
H   96.392235   98.199562   22.096874
H   56.838234   55.787846   34.649372
H   42.943310   76.814949   25.545326
H   46.898472   95.987175   51.645950
H   23.419231   62.114666   46.414639
H   16.072922   19.621111   10.928006
H   12.731709   64.537369   13.969421
H   68.312286   15.671044   97.646866
H   41.648880   25.066162   70.911560
H   75.741951   66.456352   83.996712
H   37.906788   35.073269   29.101507
H   56.248653   97.163483   79.282211
H   70.084648   18.121677   37.573036
H   29.518148   33.382565   71.564224
H   43.529293   52.942276   55.244602
H   13.540608   47.686142   62.706192
H   12.467909   23.011841   92.822273
H   72.679367    4.379502   39.449848
H   26.986908   73.671524    1.874154
H   93.782700   12.350376   86.737473
H    7.220028   84.554985   72.441154
H   13.177622   60.548897    9.098782
H    3.921973   46.078629   98.201813
H   47.603767   41.085526   58.685425
H   70.613632   70.524277    0.908070
H   92.771027   26.335098   87.526871
H   85.967552   95.355827   21.689667
H   54.919716   42.735558   22.443586
H   39.188538   47.027325   11.671983
H   90.717812   33.672810   56.414974
H   73.688408   54.342159   75.414597
H   68.415459   27.431625   74.473000
H   65.526360   37.355644   49.383030
H   33.891281   56.846230    1.366972
H   16.539049   83.633430   60.072544
H   59.701473   45.784019   69.288857
H   95.711395    9.750179   57.313610
H   26.383095   38.431980   92.926704
H   70.511520   28.889856   14.512389
H   29.747961   18.659853   84.288742
H   82.662506   11.549633   94.093567
H   40.108185   39.408451   23.994019
H   69.846413   52.993824   19.617466
H   91.041214   99.531792    6.017100
H   14.267416   31.071081   90.328690
H   54.304188   45.357376   72.314514
H   28.742348   10.144921   46.377197
H   62.071838   26.965427   47.628548
H   43.906685   38.063217   30.981800
H   47.314640   15.405746   53.797810
H   78.708992   90.774406   31.792492
H   58.740128   91.443352   93.940117
H   59.273384   84.540077   26.785526
H   51.039742    2.168900   30.396223
H   31.102449   82.772659   37.115185
H   91.086876    8.517740   36.820953
H   96.384453   32.815117   32.298851
H   63.949890   23.725931   38.483181
H   53.600788   34.233463   20.062431
H    8.210724   88.899956   58.513268
H   48.870232   77.608559   27.239555
H    7.500489   17.710663   53.267265
H    0.470888   37.596027   30.560452
H   49.985394   74.259590   81.023544
