100
TIME:    4.018, STEP:  4018
H   45.600983   53.550232   95.467422
H   89.508614   22.592745   31.453127
H   48.820488   62.974968   76.178322
H   82.151016   67.108574   19.922377
H   59.182190   94.817924   56.759872
H   65.718269   96.855095   76.662498
H   42.386654   32.652294    4.665801
H    4.079422   36.209820   39.274761
H   54.857826   99.978958   47.168682
H   65.039207   74.075890   65.032715
H   26.510452   27.915272   52.714863
H    2.482899   25.092005    6.923777
H   87.670303   18.613815   25.773514
H   56.132988   92.691261   63.012890
H   29.375801   11.123575   57.632206
H   39.969971   60.300102   99.511658
H    1.003383   47.729435   39.162743
H   86.999962   99.305138   60.245937
H    7.850061   46.914497   75.045258
H   84.266289   20.489504   89.896782
H   25.842896   56.213512   48.186790
H   47.589920   49.417938   77.108475
H   32.097939   61.944084   17.390217
H   45.725777   84.871277    8.660830
H   85.877838   67.512955   66.213661
H   28.232252    7.887546   12.563686
H   15.601835   75.454788   79.693398
H   93.514984   43.986359   99.583611
H   98.537888   13.636550   67.239235
H   55.060928   91.393913    2.808481
H   74.190132   82.357155   91.487572
H   19.456007   41.497726   27.297646
H   53.380665   74.506432   59.770126
H   47.871918    5.497057    2.479968
H   80.894211   55.190147   69.395340
H   21.913019    0.120030    6.817547
H   65.176559   57.388168   25.067862
H   97.921944   85.419594    5.981411
H   75.472595   93.873283   54.938072
H   84.742546   36.031456   54.162922
H   60.649826   94.052292   37.008038
H   70.506180   92.187622   91.570786
H   45.850224   87.594696   91.698296
H   22.782290   80.109039   73.592896
H    8.124296   73.360229   99.941345
H   26.249950   39.554005   99.482216
H   73.125290   43.350792   64.036736
H   56.453999   36.754059   17.188957
H   82.479965   99.679779   84.194794
H   10.147014   91.891945    2.641183
H   43.238071   81.731331   95.781967
H    0.400712   90.898834   10.286869
H   92.219124   45.306458   69.511421
H   83.645042   41.649223    9.120105
H   20.874771   10.715822   34.521534
H   98.593643    8.307455   55.844604
H   50.974606   73.608940   38.132759
H   26.867180   97.436790   10.060255
H    7.168608    8.538748    3.018658
H   93.872833   36.625179   49.329109
H   13.158920   91.716942    1.121774
H   56.307945   90.543106   13.551503
H   46.842808   33.102470   57.944145
H   18.947908   63.651428   18.050358
H   91.803459   39.933010   69.747887
H   54.513008   42.526070   83.759323
H   65.196854   87.275085   61.051434
H    2.814920   47.331314   58.286236
H   57.160286   61.078476    8.229725
H   11.791452   50.237167   93.272369
H   94.442039   22.015194   13.948929
H   42.664497   18.175751   50.801533
H   45.010727   19.560131   58.729378
H   41.759701   95.112175   64.418114
H   55.893993   34.367168    5.989283
H   20.644526   65.090294   25.569454
H   31.762972   78.293503   62.109440
H   20.753277   87.993477   36.339233
H   54.189072   41.716595   62.515762
H    2.474809   90.124901   74.766960
H   89.501633   70.849716   20.135321
H   42.800552   70.468155   50.795044
H   72.017097   74.325623   12.594616
H   26.582525   55.988106   96.435257
H   56.686234   97.555519   58.252365
H   58.820484   56.644051   20.805496
H   35.507866   11.211601   15.137384
H   20.632135   83.603554   53.957268
H   39.069443   70.456444   95.328743
H   11.093032   43.965111   67.849030
H   88.455688   90.392143   18.314615
H   75.587738   97.676323   10.087624
H   43.015022   48.077820   29.722635
H   35.582882   56.955276   97.732140
H   87.120979   89.821342    8.416831
H   25.791946   37.064217   59.914024
H   43.672150   98.265587    6.109900
H   21.614920   50.448547   91.742043
H   17.304955   54.170315    8.486603
H   88.784676   75.523506   10.673011
