100
TIME:    0.506, STEP:   506
H   83.103920   75.618568   98.682755
H   87.194893   32.179234    9.918639
H   88.458221   10.307805   17.398598
H   81.561539   11.802565   12.427211
H   90.638855   13.315652   51.985222
H   20.169922    0.662931   28.856173
H   26.451466   95.504448   30.022631
H   80.115692   32.377346   61.735809
H   41.189552   37.643631   68.237404
H   61.012398   23.650986   27.504267
H   53.188141   86.602646   91.009026
H   36.528194   49.053780   56.911247
H   11.076201   31.093826   74.836113
H   30.027637    3.517153   95.746132
H   86.656746   24.825720   26.448984
H   81.178680   67.479744   91.037582
H   83.384911   15.459579   19.425066
H   11.957332   70.093842   82.004196
H   53.143524   99.578888   90.021210
H   78.952431   94.922913   50.708366
H   34.249786    5.842848   43.509186
H   10.866464   44.767799   76.171150
H   78.988197   90.506950   17.872612
H   72.028641   42.750431   69.495834
H   11.486513   46.044910   40.295120
H   44.338840   12.532590   41.745918
H   18.445444   21.442822   10.007116
H   89.846306   80.057556   83.500076
H   22.173752   95.000542   33.252655
H   20.395697   78.316269   23.613922
H   36.006351   67.418190   69.371269
H   97.706635   38.531136   52.421120
H    5.999203   31.460363   43.381432
H   99.481453   27.350708   50.433952
H   68.194405   20.670609   55.539238
H   16.549828   24.234682   18.903257
H   28.331326   86.004738   48.336071
H   43.075867   49.692974   58.147274
H   27.971966   69.706383   93.628677
H   15.534241   64.814156   77.845695
H    0.663181   73.541817   54.262516
H   86.144768   34.567390   26.572744
H   15.599399   66.534271   38.022072
H   47.047562   21.251448   30.205887
H   12.764084   11.927707   99.406799
H   71.489006   72.716362   85.302574
H   41.422962   53.037769   31.946966
H   56.266438    0.593080   99.886383
H   79.820183   90.542648   24.289038
H   36.502224   38.451038   48.273827
H   43.506016   20.792639   58.752064
H   29.722887   16.785591   40.844429
H   19.375444   24.942688   73.483315
H   64.971222   98.946175   54.144611
H    0.476220    2.863033    4.699804
H   94.199356   12.000162   75.401367
H   28.330040   74.946480    4.112196
H   88.381042   29.101494    0.521118
H   30.184036   60.148407   72.638412
H   25.628113   66.681732   49.217735
H   91.619217   55.038322   74.943329
H   80.952209   23.235580   72.461182
H    8.554096   72.648048   98.844337
H   77.786018   44.546997   13.401632
H   52.407219   20.430458   42.684113
H   70.260994   17.118336   76.104530
H   46.971581   65.853973   91.491440
H   45.412971   46.476181   90.392326
H   82.121483   13.428383   28.496853
H   40.636543   73.594872    0.666723
H    5.963912   60.976124   56.078739
H   32.245335   34.732460   93.668343
H   73.999527   93.278511   48.774693
H   19.053497   17.358683   73.135521
H   86.568039   29.363676   39.756519
H   37.621243   40.002541   61.880993
H   12.896129   82.688103   99.987732
H   55.753128   17.634274   42.385181
H   85.806389   52.020359   23.330536
H   74.710312   81.397072   77.328857
H   20.783855   34.516460   10.231302
H   79.289131   47.532120   44.467880
H   49.811642   15.703094   78.093903
H   84.977997   55.460667   17.212624
H   27.691969   17.232635   98.701546
H   39.647030   27.640068   76.921379
H    0.949309   66.562599   47.671169
H   64.100769   64.782417   90.479836
H   66.183784   65.998863   24.060745
H   21.598953   88.465347   42.301250
H   44.730167    0.754885   44.147533
H   15.725824   33.561668   43.164803
H   17.749771   42.792007   58.060417
H   96.134071   43.925629   60.934361
H   47.843815    4.404454   27.713413
H   35.715134   75.749870   41.313484
H   22.438410   96.718864    8.088337
H    8.723018   20.545959   47.939651
H   84.607475   39.031460    2.667271
H   70.665787   65.707970   48.951157
