100
TIME:    7.334, STEP:  7334
H   21.353704   49.457802   92.431534
H   97.930191    2.281446   40.537518
H    5.835590    1.541804   37.250965
H   82.707596   30.490490   38.161198
H   29.480005   60.609783   66.850403
H   14.286309   93.262627    5.056381
H   68.593735   56.565563   63.981503
H   43.448357   23.086391   34.810387
H   73.344154   81.159134   38.437672
H   74.442055   21.690371   94.873512
H   18.064209   61.341969   33.301773
H   75.923691   91.306305   70.887001
H   76.084846   18.068363   96.274132
H   91.945763   82.470436   15.360226
H   69.684761   14.923790   98.211456
H    6.638586   70.270508   24.255014
H   34.350533   67.056641   41.031307
H   57.901951   37.966461   45.291756
H   59.491375   86.023361   49.744404
H   94.928085   50.065594   15.665384
H   29.066757   26.094353   58.183392
H   65.498062   53.819977   94.720459
H   87.822731   34.975273   22.516176
H   37.623497   24.564180   62.388245
H   67.278389    4.536346   90.703163
H   13.026882    9.895844    0.720141
H   29.659548   37.611198   45.487316
H   13.720431   98.766045    9.194629
H   70.641563   14.490013   10.490355
H   82.211624    9.323208   66.420555
H    4.693431   79.709259   29.136269
H   28.830379   49.879025   20.318916
H   86.954109   31.891478   58.501595
H   87.980354    1.605455   62.781433
H   98.432503    4.383324   71.259201
H   10.169947   59.859222   96.368843
H   83.224808   35.949341   86.355927
H   60.862740   24.736050   39.980995
H   35.501987   21.620951   33.592850
H   72.411934   25.598539   15.057965
H   34.024094    7.831910   15.130409
H   82.144310   70.363434   54.372677
H   74.403656    7.482388   31.216267
H   11.043762   35.743431   97.815544
H   20.485981   42.529224   83.700020
H   83.456139    2.801214   12.956434
H   99.031540   23.686253   95.862968
H   56.635250   70.907806   22.363873
H   79.409554   25.048306   51.919029
H   79.718506   42.361607   70.739876
H   42.998005   61.593216   30.737061
H   61.561047   83.198196   92.605194
H   61.003239   64.533752   76.922218
H    6.855888   87.542191   55.445206
H   56.851059    1.321062   62.730000
H    2.730247    4.819067   42.960129
H   61.194218   77.926857   53.511909
H   79.951096   84.281380   24.648676
H   68.692192   48.655025   48.454262
H   75.049736   91.503296   55.014183
H   22.335028   37.506683   42.579201
H   38.619942   59.678238   63.515816
H   71.966774    6.823716   30.556061
H   46.652790   81.714478   28.021076
H   23.421082   75.090576   78.552299
H   50.808167   77.678520   79.827164
H   99.147461    1.918948   21.147928
H   73.756157   36.977226   16.810211
H   22.427109   22.811859    0.255947
H   78.974495   17.013132   86.288300
H   89.144218   96.396393   74.174873
H   69.329552    8.081895   93.625862
H   28.801096   55.541782   73.707092
H   68.755638   85.250366   67.392212
H   15.757543   39.114109   57.370487
H   99.035042   77.614159    2.444891
H   32.866901   91.023872   20.810755
H   76.544983   71.169044   19.468370
H   13.206124   31.976452   99.504021
H   39.858322    9.501498   89.090614
H   54.390053    5.155953   18.326050
H   91.634315   92.032761   73.441139
H   81.767326   29.768469   28.396179
H   54.716091   39.745724   93.570030
H   95.224838   90.135704   36.803246
H   82.499313   78.445282   51.078476
H   56.976063   70.110924   73.256752
H   73.979912   18.199537   19.535736
H    7.884005   85.827171   68.208138
H   17.914370    7.533886   86.389587
H   24.160236   69.445198   88.342453
H   20.940630   47.065994   73.266106
H   55.577000   47.576565   86.154060
H   56.068443   58.118126   21.319117
H   29.792793   92.794113   84.614349
H   99.679886    6.120751   88.638130
H   80.464073   88.563080   15.403672
H   24.121004   49.344906   31.652269
H   59.338188   68.472191   30.737957
H   94.754845   90.431992   91.232544
