100
TIME:    5.868, STEP:  5868
H   20.493486   83.896721   93.773697
H   38.414558   22.841688   48.102238
H   80.627563   96.071899   54.464207
H   82.461533   90.887970   18.517441
H   42.611908   43.103500    6.600279
H   37.024578   94.850853   59.874828
H   45.427853   57.574261   49.338322
H   58.673065   96.259079   69.414391
H    9.381294   22.109238   30.716829
H   14.485262    0.639205   37.473667
H   54.427963    2.354435   74.513451
H   31.875862   17.822880   75.238548
H   69.617661    6.740479   41.947685
H   64.532539   86.989052    3.796552
H   51.874947   45.873856   68.704498
H   65.584290   98.492165   45.946014
H   52.237495   70.092293    7.575536
H   26.551260    9.301682   96.110878
H   36.663418   24.522745   72.510010
H   34.422676   81.198769   15.853296
H   16.061272   72.039978   97.976891
H   24.951218   51.873840   19.563843
H    7.396588   46.898155   64.460037
H   73.836815    7.026583   71.265457
H   19.710938   20.797768   79.876381
H   19.796667   53.187698   38.617294
H   56.075439   98.550247   16.395933
H   37.417057   30.338097   60.740196
H   38.765190   81.483002   79.788971
H   25.997963   45.606865   49.877518
H   46.998848   48.250080   45.121452
H   36.266239   90.386078   56.033897
H   83.691399   39.151100   26.432737
H   26.038990   35.955467   24.541227
H   34.909561   15.343643   82.048309
H   82.733002   45.035927    0.977419
H   42.616455   89.635864   70.840797
H   21.458088   51.568127   36.529774
H   97.380859   53.562614   75.659615
H   10.493784   62.841724   99.716026
H   34.214890   57.526169   80.593239
H    5.690879   64.614502   79.530571
H   61.785358   98.688599   25.326202
H    4.652997   11.137106   54.477264
H   47.649822    0.372241   58.251080
H    2.379809   74.839951    7.000586
H   87.578415   43.960220   81.792625
H   56.552799   55.808472   31.656485
H   36.556976   46.461517   10.396361
H   48.947445   20.046064   73.247726
H   43.098667    3.125625   15.285279
H   90.306831   19.232563   88.838295
H   30.592060   56.033386   62.066174
H   40.801430   11.459096   90.755699
H   73.575951   72.849075   50.259068
H    0.904337    6.361156   92.866226
H   68.256310   20.228355   14.083191
H   89.112457   22.727568   62.409286
H   53.072624   86.706139   60.994957
H   71.790390   78.822433   96.710716
H   29.858990    5.683517   56.879475
H   90.651131   73.323563   29.845619
H   72.439903    6.860956   31.084076
H   45.985046   73.728607   67.826324
H   65.235870   92.176620   42.030628
H   40.865349   50.557365   93.145287
H   16.767860   51.233013   50.369644
H   75.022804   53.134739   46.726933
H   49.363522   28.149269   92.201416
H   49.268936   43.285851   89.376801
H   35.697990   96.141922   91.757210
H   90.123795   56.777496   86.249527
H   24.387005   28.051056   11.290947
H    1.034325   78.032677   54.496666
H   45.090511   37.006557   46.232559
H   64.384865   83.656914    1.088170
H   99.730888   17.946463   94.826576
H    7.669642   67.027550   38.507805
H   42.904194   36.282558   83.152000
H   11.752939   89.361549   15.387599
H   25.699732   89.988815   30.705133
H   81.621414   82.525635   96.082390
H   89.038628    5.252692   88.782059
H   53.857956   14.296391   27.466038
H   66.606255   81.838478   78.915649
H   16.237400   24.594757   49.274994
H   59.065178   76.701378    3.352336
H   50.402580   35.510159   34.735733
H   77.460556   67.451378   80.198128
H   47.529003   67.852219   33.984528
H   64.165398   90.286835   57.383221
H   12.471476   36.808609   45.334221
H   61.603577    3.587178   72.786026
H   14.387419   69.177925   22.469149
H   55.137794   24.109753   50.926060
H   78.594315   64.010651   64.359085
H   96.828453    4.433272   99.714966
H   26.950731   76.806259   61.079262
H   29.174927   62.144939   53.531403
H    3.696106   28.052837   32.457600
