100
TIME:    7.676, STEP:  7676
H   98.226067   18.095161   92.118423
H   88.484695   20.814587   62.102993
H   11.714357   26.145771   33.235325
H   82.764999   16.399220   19.414593
H   26.415438   88.022591   57.577118
H    8.982350   92.892113   38.926056
H   50.670109   79.658295   90.726349
H   16.567833   52.672710    3.408290
H   64.937141   48.277328   16.909641
H   65.100929   26.600985    8.264847
H   86.252213   75.103165    0.358716
H   62.871979    8.448786   46.542671
H   54.276711   97.368332   62.286137
H   75.011711   81.416298   41.387524
H   73.838692   84.374680   81.762726
H   92.887299   40.358032   95.865509
H    6.848789   89.678864   72.164917
H   65.215256   21.324646   33.437920
H   64.817261    0.369089   67.761841
H   85.712204   42.804043   38.950356
H    8.771988   92.046875   48.902279
H   98.285934   54.273987   65.595978
H   83.256538   32.193810   12.730392
H    5.846479   28.655489   36.987167
H   55.046211   77.415329   93.228920
H   11.414364   99.814987   68.537575
H    0.168450   23.394171   52.273983
H   84.863029   14.729423   20.499609
H   78.077934   45.518543   94.324120
H   95.325729    0.858140   93.608971
H   18.153811   10.377825    2.078376
H   50.424557   40.430920   88.658318
H   11.043623    6.870032   89.311653
H    2.430514   70.263130   48.373138
H   89.921120   78.489128   92.065384
H   39.898945   86.645813   95.293831
H   16.027618   23.424032   13.303988
H   46.728416   18.476452   64.113991
H   21.064991   14.170229    0.451302
H   40.200027   93.581635   41.966370
H   10.651598   19.565725   23.187712
H   53.322502   71.704590   71.832359
H   77.346893    9.533913   55.918064
H   89.205399   41.483788   31.254261
H   90.819679   29.036777   12.965977
H   79.041283    9.323272   14.345861
H    1.704450   42.285591   99.145409
H   56.656124   74.430298   43.524914
H   89.408211   96.724495   38.275246
H   86.899170   47.567066   46.826805
H   42.974522   28.575594   34.342590
H   78.181992   51.463428   70.155182
H   68.096291   66.516785   57.060585
H   98.936462   81.963608   70.537125
H   29.620781   31.292564   65.637848
H    3.156208    4.459316   31.317642
H   82.876770   68.058662   86.038857
H   54.484787   51.984047   15.838546
H   95.663399   63.107677   22.199471
H   52.481033   17.790592   45.286888
H   43.908916   21.602432   15.915242
H   26.481697   56.494949   48.040337
H   95.183907   83.486359    7.104095
H   70.137993   83.577484   18.734745
H   36.996201   47.775364   10.401263
H   29.798599   60.676628    0.048874
H   71.708557   13.742292   37.660137
H   50.131981   56.536186   33.159790
H   39.473358   98.237938   78.807861
H   85.920326   34.189846   85.562927
H   78.284508   73.127075   70.073128
H   41.167393   96.725975   18.694258
H    6.501116   38.625996   64.940002
H   61.226299   63.604053   47.071350
H   32.231079   39.617695   83.301239
H    7.120441   99.531883   79.431465
H   63.927448   61.424278   26.875963
H   92.612762   48.806942   38.356754
H   29.605391   30.971889    3.320490
H   23.086739   90.870964   59.626930
H   61.085396    8.694100   38.766937
H   17.297745   94.250626   44.829823
H    3.398393   35.487949   60.967484
H   78.245308   69.011108   62.332195
H   78.572586   68.739830    3.650950
H   74.629807   91.006226   74.827896
H   79.817467   45.244743   89.564583
H   79.480217   90.832825   15.989761
H   14.982472   66.784843   65.411018
H   87.677246   93.463394   98.616547
H   38.156269   87.913490   95.564865
H   46.245167   72.788010   79.784019
H   77.499939   57.838757   12.601443
H   89.121834   78.866905   44.379635
H   23.878922   62.161324   92.473419
H   27.927750   92.615662   70.973488
H   53.317406    8.189609   95.734612
H   23.460863   66.266258   24.786020
H   43.046013   69.949028    2.090980
H   15.997881   81.654465   58.287663
