100
TIME:    4.596, STEP:  4596
H    6.514021    0.544801   94.938248
H   73.545174   53.915482   67.899536
H   58.755745    4.559069   69.396065
H   82.248032   43.295708   88.240608
H   54.005096   41.147171   41.087479
H   56.754009   96.228905   33.903255
H   12.094500   71.682480   49.866192
H   58.649757   86.214386   86.204414
H   40.649483   44.406784   10.784634
H   49.243340   82.375114   87.663757
H   72.746307   51.172504   97.039780
H   80.424644   54.064323   65.780739
H   50.786819   83.660652   68.340332
H   27.513798   90.909706    6.996905
H   36.405830   59.494080   29.846291
H   16.728928    9.746132   51.533142
H   54.524178   85.960434   91.780357
H   99.350685   71.190758   40.205029
H   16.852638   71.162628    5.498538
H   68.690910    8.214853   29.249643
H   91.543571   98.670319   32.501167
H    3.003342   50.185242   27.886398
H   24.380806   57.243248    0.852309
H   92.023270   91.803467   65.735184
H   65.204742   21.673523   70.482338
H   25.595160   90.786072   58.230518
H   65.761681   51.427944   91.158852
H   44.744450   70.965454   18.690210
H   11.106679   66.077049   39.916176
H   77.224533   77.088554   48.757149
H   96.935829   34.187946   45.758049
H   55.951427   25.529877   73.789314
H   94.092995   32.216545   11.840932
H   72.293335   52.526733   78.129295
H   66.527115   11.497833    4.593719
H   72.160141   45.407337    4.978297
H   20.615545   36.221176   70.612167
H   74.029701   74.844917   46.767803
H   51.075298   81.278923   98.926117
H   30.301939   81.921379   99.637634
H   21.147533   13.884625   50.625469
H   18.558693   18.128485   18.725145
H   50.828876   91.060791   33.448029
H   85.873611   89.792938   30.107595
H   57.985874   50.555397   49.402973
H   18.792995   50.578480    1.831092
H   77.640915   74.783775   69.584251
H   56.484867   42.707275   52.952354
H   99.378281   51.808224   61.139862
H   22.269527    0.685408   62.212700
H   43.193974   25.929607    1.875962
H   28.488871   37.264767   72.343933
H    4.206191   48.657898   35.940411
H   70.256920   32.216682   34.624352
H   74.854492   61.371082   39.438450
H   99.316849    7.699177   36.168121
H   87.618393   56.931114   93.105202
H   83.828018   42.852409   95.171982
H   52.752609   32.961945   58.646660
H   55.729107   81.052124   32.889412
H   49.620117   64.834862   56.054588
H   35.793602   85.163162   87.399597
H   86.083046   93.659958   18.308952
H   58.639702   66.799530    2.355915
H   14.744782   93.768951   23.574747
H   19.005554   13.791948   17.934713
H   18.822874    7.259247   88.956589
H   62.888603   80.387100   85.917976
H   85.966080   19.547073   71.980469
H   23.501650   79.308594   92.055267
H   76.088493   82.687897    7.014613
H   95.006256   98.992462   93.119255
H    7.323227   90.970070   43.908073
H   29.033047   58.536716   30.074669
H   83.762581   35.191799   49.806240
H   34.310463    2.132688   86.676926
H   84.242172   28.195301   72.331337
H   47.908764   50.199963   68.261116
H   81.907448   40.018826   68.963890
H   74.128632   58.647068   24.971611
H    0.808602   76.829391   54.680859
H   86.168587   74.242935    2.462405
H    8.580896   83.980652   67.644562
H   66.346161    5.448436   43.642952
H   28.542681   61.403740    2.221836
H   45.516148   77.874306   60.943405
H   74.111168   69.186279   42.698608
H   29.934587   37.327217   47.946724
H   51.064072   38.273796   90.601448
H   59.991337   20.183113   88.513306
H   12.109977   21.603004   30.520914
H   18.355444   41.143005   21.101397
H   80.066078   65.421883   74.420273
H   91.448349   92.013992   36.703411
H   77.128395   38.048195   21.697544
H   73.532333   14.240774   30.059746
H   97.793846   31.435497   72.868698
H   23.736029   55.369873   82.490303
H   89.770386   56.661846   60.074799
H   24.686525   60.689960   54.993656
