100
TIME:    8.745, STEP:  8745
H   25.933197   20.063173   91.139725
H   58.960617   78.743317   29.504818
H   30.089426    3.054725   20.687191
H   82.944427   72.356255   60.820915
H   16.836424   73.707565   28.591805
H   92.406372   91.733986   44.792801
H   94.645088   51.843147   74.323555
H   32.546539   45.155056    5.256244
H   38.659081   45.496628   49.621243
H   35.903084   41.950245   50.122841
H   86.816437   18.116169   97.387062
H   22.068398   62.032253   70.450462
H   86.109955   32.663986   56.052612
H   22.081186   78.121346   22.738224
H   86.822762   88.886330   30.353760
H   49.906113   46.859337    7.129207
H   20.886269   60.383236   69.480202
H   88.068710   69.307289   96.382401
H   81.471451   45.217793   24.082577
H   56.907848   20.104250   11.732813
H   45.336021   85.624847   19.890314
H    0.772011   55.693100   74.560760
H   68.983849   23.503691   82.145203
H    6.520937   41.443817   57.595257
H   16.813335   92.637543    1.123213
H    6.373304   68.300888   67.939499
H    7.987436   78.958511   73.483627
H   94.664337   64.626740   55.837463
H    1.322110   42.506557   43.790642
H   36.314461   74.400589   78.591187
H   60.228359    6.237257   17.502510
H   17.921772   10.898333   89.695641
H   86.342911   28.656143   85.615616
H   47.599518   72.295654    3.339183
H   63.316826   97.550819   57.106663
H   32.824986   70.378189   91.933632
H   18.558624   84.273689   97.537254
H    2.546210   98.912651   39.551186
H   75.943748   90.879662   96.857300
H   39.512207   93.505455   26.072615
H   37.592224   56.242462   48.372890
H   63.232925   75.896683   26.409031
H   86.546661   15.946428   33.133472
H   20.946789   59.431984   35.773998
H   98.092209   86.865517    4.444146
H   65.241631   29.708752   18.688837
H   10.061603    0.420325    9.411009
H   56.721371   85.440659    9.668365
H   20.656181    8.190025   95.631622
H    9.341442   63.837933   72.083153
H   42.901119   25.370426   45.613937
H   30.136477   52.268368   99.980995
H   90.263817   72.715210   94.976364
H   74.175385   64.526459   17.708885
H   44.505287   24.974588   74.723434
H    4.487646    3.334832   94.926346
H   50.646019   37.213341   87.709648
H   74.885193   51.030052   88.303246
H   79.976814    8.275708   40.132103
H   81.938774   99.956940   14.881981
H   11.341612   71.886963   32.566990
H   88.540764   46.544846   99.670265
H   67.759903   10.539634   33.799561
H   43.543568   89.400742   89.711914
H   79.427979   62.396450    9.952396
H   64.129738    7.533612   63.257008
H   85.940475   50.698215   89.270187
H   76.288727   17.673309   84.264175
H   92.750946   21.426399   11.760773
H    7.631391   87.883255   83.295609
H   44.335247    0.389461   57.252174
H   53.137131   61.231834   97.051376
H   36.801270   85.747276   37.528431
H   37.696751   95.949196   83.555733
H   83.726944   41.191769   64.353424
H   32.394653   68.046623    7.502361
H   61.015457   68.899292   45.837151
H   42.831478   78.911537   97.401367
H   80.867424   27.831898   15.250420
H   70.662407   32.638390   67.531670
H   82.013237   19.753397    2.659718
H   97.514420    1.184291   55.396561
H   71.015877   53.365513   62.773655
H   51.790543   60.487892   64.695641
H   26.522125    1.869249    0.024088
H   50.027210   30.271503   49.062607
H   51.213627   67.519417   40.538597
H   96.672691    5.290409    4.905809
H   37.169437    7.265045   56.667976
H   93.163101   49.484505   36.829636
H   81.904106   45.634495   18.140526
H   25.340342   53.186813    0.157208
H   46.024799   89.909019   95.268860
H   92.435928   43.721912   16.460287
H    5.393893   66.406754   17.037252
H   16.222778   50.401123   15.758558
H   68.465385   69.536385   34.256020
H   21.397440   19.163322    3.323973
H   92.121544   74.565224   12.551487
H   82.396698   54.221188   55.307232
