100
TIME:    8.275, STEP:  8275
H   57.717522   63.164177   91.570023
H   71.941269   53.275349   99.869766
H   22.010584   69.240631   26.203968
H   82.865540   91.719658   86.581856
H   21.047964   36.034992   41.335312
H   99.692749   92.243172   98.246681
H   19.277802   20.105097   37.568943
H   69.487610    4.495279   48.411308
H   50.212578   90.685074   79.205963
H   48.740303   35.201740   31.720409
H   30.534683   99.205383   42.659515
H   40.008232   38.473446    3.905954
H   16.080589   61.110260    2.760712
H   45.352364   79.570015   86.971046
H   81.114143   30.869034   52.955154
H   68.803360   87.967125   46.143829
H   58.680763   29.297802   26.694250
H   78.020416   92.177620   12.674431
H   74.149216   25.499393   99.322311
H   69.570938   30.085367   79.733101
H   73.226494   32.414997   32.646763
H   55.712650   55.069168   14.585556
H   75.259026   27.324377   95.592010
H   50.191536   35.821259   92.500244
H   33.622017   29.911392   97.652687
H    8.590099   82.156479   12.167627
H   48.516846   98.494034   64.160507
H   34.321434   42.688725   40.300125
H   91.102455   99.865067   66.008354
H   18.293514   86.032974   41.226990
H   41.729137   64.089928   54.687416
H   88.245934   23.882923   33.205849
H   53.237499   63.043938   43.274307
H   27.740887   15.368216   23.138361
H   75.013756   33.136375   28.509787
H   91.969604   33.563240   93.410988
H   73.478569    1.485745   60.502956
H   21.971760    7.513889    6.385956
H   95.780479    1.120563   42.403084
H   83.780701   37.505486   89.094421
H   69.713959   40.117050   37.299892
H    2.841903   74.053574    2.414637
H   82.501862   13.127081   99.186043
H   50.956478   51.539604   89.820953
H   38.860832    5.405149   64.225395
H   71.308830   20.746006   16.779390
H    6.386994   74.860603    4.897588
H   56.692684   80.599808   80.587669
H    6.918887   47.114052   14.380285
H   99.475830   56.684231    4.943904
H   42.933392   70.745598   40.658340
H    7.293367   95.880020   30.834770
H   80.517570   69.989990   22.273050
H   85.061920   72.192932   96.970047
H   81.926857   83.786484   70.728836
H    3.902261    3.829226   10.926270
H   20.851479   50.774895   43.008873
H    9.882493   95.415276    0.408992
H   42.906658   88.416542   76.214951
H   12.954951   63.833416   28.249901
H   81.693741   93.746094   69.210945
H    5.222023   50.919540   20.936558
H   35.850155   42.612213   66.028870
H   11.268795   86.840469    2.470845
H   60.773949   99.932922   66.183655
H   93.002724   30.898460   35.466938
H   23.649961   34.450886   66.579147
H    8.754934   90.792961   61.795456
H   69.328400   55.197609   41.239632
H   98.085686   64.274246   84.292465
H   59.262997   32.369926   62.889076
H   91.841415   76.837303   62.599010
H   67.445648    8.996862   49.580357
H   48.041828   25.695461   11.481451
H   61.086105   40.499706   28.717596
H   21.282213   37.922668   39.126823
H   18.329334    9.577545   37.500130
H   20.752699    9.641979   71.440063
H   58.327888   29.212437   10.005268
H   93.712029   58.241112    8.022585
H   72.812035   14.891030   74.568375
H   62.244514   98.135132   94.717827
H   41.286728   45.505405   18.011921
H   19.456551   20.268862    7.624466
H   49.406799   31.269764   45.584511
H   60.845615   13.007594   16.424515
H   19.823397    1.692267   18.127251
H   89.113792   42.900574    9.779121
H   27.415176   33.432930   60.511971
H   34.717472   68.821915   20.028814
H   62.669788   20.257679    8.214988
H   90.565102   17.838562   91.199898
H   15.896782   75.809593   58.923035
H   47.012161   15.207509   84.769356
H   13.521000    8.504868    6.237759
H   77.402649   68.961304   40.034538
H    5.772064   42.563881   61.285896
H   22.304651   95.907326   12.760046
H   14.510947   72.535652   51.920155
H   53.202312   66.280960    0.582469
