100
TIME:    0.499, STEP:   499
H   83.577309   76.260506   98.689163
H   87.389610   31.799694    9.477094
H   88.337952    9.804202   17.480789
H   81.560364   12.090982   12.810918
H   90.701553   12.754571   52.175026
H   20.278469    0.670550   28.162939
H   26.818336   95.031807   29.475222
H   80.665878   31.771778   62.378548
H   41.361626   38.316650   68.678001
H   61.203697   23.550503   27.230135
H   53.839264   86.320984   91.683327
H   36.795383   48.702904   57.409523
H   11.521459   31.517334   75.531883
H   30.374241    3.538735   95.213463
H   86.571617   25.450968   26.785467
H   81.460129   68.091988   91.618637
H   83.947701   14.996658   18.787748
H   11.807755   70.434250   82.246872
H   53.034523   99.285263   89.652390
H   79.141914   95.069672   50.230812
H   34.665176    6.539733   43.699150
H   10.195247   44.758560   76.767159
H   79.081657   90.563881   18.072910
H   72.679016   42.666477   70.015686
H   11.736853   46.600063   40.243423
H   44.370937   12.741153   42.402008
H   19.049063   21.733803    9.868208
H   90.436974   79.730820   83.268723
H   22.021545   94.365440   33.583557
H   20.127306   78.489517   23.057461
H   35.730991   66.790459   69.925194
H   97.264648   38.724518   53.069145
H    5.506121   31.972498   42.750816
H   99.185692   27.992218   50.728859
H   68.368401   21.199753   55.113007
H   15.941190   23.684790   18.927343
H   27.659935   86.261086   47.784496
H   43.365166   49.821095   57.653324
H   28.286659   69.855812   94.299561
H   16.193562   65.469444   77.294975
H    1.141537   73.301598   54.097546
H   86.773888   34.253204   26.243872
H   15.539117   66.492294   37.516479
H   47.494568   21.134142   29.521465
H   13.371281   12.203881   98.807800
H   71.578407   72.584770   85.275124
H   41.349049   52.660137   31.887152
H   56.266064    0.521006   99.453262
H   79.615532   91.122421   24.568270
H   36.355412   38.344494   48.763397
H   43.506550   21.468462   58.678257
H   29.382719   17.435139   41.303986
H   19.230234   24.902100   73.889839
H   65.133255   99.060356   53.835712
H    1.033498    2.249367    4.640404
H   94.190598   12.007519   75.639664
H   27.886292   75.148460    3.446429
H   88.902283   29.762550    0.701430
H   29.631981   59.852646   73.175781
H   26.090019   66.143723   49.416832
H   91.177658   55.363831   75.489136
H   81.200653   23.300735   72.777878
H    8.079279   73.125389   99.324562
H   77.305367   44.508919   13.591703
H   52.129349   20.989536   42.032188
H   70.691017   17.466328   75.690636
H   47.533195   65.611938   91.153488
H   45.896507   46.075851   90.057686
H   81.772636   13.931358   28.935902
H   40.494751   73.242821    0.681442
H    6.186206   61.452450   56.162693
H   32.822491   34.964775   93.155861
H   74.455933   93.624794   48.954189
H   19.207573   17.801657   73.551552
H   86.230515   29.353716   39.225880
H   37.455738   39.553879   62.351978
H   12.260573   83.294792   99.863831
H   55.424255   18.091988   41.998577
H   85.470894   52.040867   23.252483
H   75.053604   81.778282   77.931915
H   20.646870   34.444042    9.812935
H   78.763939   47.486404   45.053261
H   49.368748   15.586255   77.427185
H   84.496490   54.861668   17.851997
H   28.032831   17.670509   99.380119
H   39.808155   27.382946   76.435280
H    0.481792   67.071556   47.337383
H   63.988083   65.342857   90.552574
H   66.038521   66.388618   24.118023
H   22.217846   88.753418   42.050991
H   44.443699    0.376911   43.999706
H   15.207882   33.035194   43.031448
H   17.300655   42.582283   57.518883
H   95.457527   43.500999   60.462414
H   47.964832    5.031484   27.552582
H   35.136963   76.026299   41.675041
H   22.994017   96.317146    8.490923
H    8.697316   20.486359   48.051643
H   84.940941   39.001286    3.253619
H   70.231064   65.887733   49.625351
