200
TIME:    0.975, STEP:   975
H   32.055988   60.035686   27.907621
H   34.514832   43.608318   19.735884
H    2.732683    1.308945   81.550896
H   42.617706   85.564613   25.279629
H    7.406433    2.357765   43.090969
H   65.707764   32.865940   43.794529
H   14.008063   54.782623   63.877857
H   19.359566   20.623631   98.983398
H   17.276852   76.487282   29.788927
H   84.987793   64.601624   67.081139
H   37.812126   10.294984   16.188362
H   33.817123   61.641048   47.763866
H   29.213840   11.402159   31.167625
H   69.664215   56.307941   77.683434
H   84.136429   77.602661   41.170139
H    7.876800   95.682907   38.467503
H   18.795034   42.139511   79.759430
H   19.109545   18.501604   30.435188
H   89.480186    3.092710   53.303707
H   92.394623   69.610985    8.978308
H   66.905838   13.448374   92.167122
H   73.666039   76.908470   42.250679
H   72.995361   57.197411   31.500330
H   24.176344   94.760269   89.281357
H   35.193214   42.264549   19.183582
H   18.052668   94.955574   82.681229
H   13.129639   73.544762   78.633942
H   11.378936    0.449780    2.665246
H   42.025375   34.189034   34.034527
H   59.835224   40.454651   73.201019
H   12.401891   82.156502   17.093431
H   18.560326   80.732895   11.699437
H    9.364014   24.800697   82.156929
H   72.100761   64.379807   51.137321
H   12.715901   59.430645   28.627460
H    9.039515   33.165924   87.890221
H    7.360005   58.565086   91.472816
H   96.559258   63.767899   82.121162
H   25.867760   20.081957   60.769390
H   83.033989   36.665989   34.985443
H   80.723007   70.888618   25.920490
H   49.923325   27.693993   18.036283
H   63.468025   70.897430   77.620499
H   35.643845   98.931908   45.034691
H   53.890484   98.719963   70.887886
H   30.716389   94.710419   50.681519
H   93.824936   90.201950   12.293292
H   72.221954   65.539391   21.224625
H   15.505416    0.860297   61.696251
H   35.814926   21.118402   74.617928
H   60.723724   61.193100   98.740440
H   93.042305   48.348736   79.343956
H   72.002281   73.403587   17.530935
H   11.467267   97.694336   92.587524
H   46.087906   60.038765   67.002716
H   95.884087   54.241589    2.716317
H    3.332945   19.526833   41.770298
H   75.438766   75.665764   92.036537
H   12.671928   88.675919   24.902943
H   26.103836   91.861977   53.407005
H   48.039089    1.036394   20.761446
H    3.146434   18.166044   54.701172
H   91.696373   40.431740   60.087646
H   41.935173   66.200958   20.078068
H   83.163597   87.036331   47.985706
H    9.907272   45.115807   46.074814
H   58.720314    7.657984    1.020496
H   93.225441   93.120995    1.823450
H   42.665970   15.785718   52.676788
H   41.006027   54.440559   50.943340
H   58.142727   89.304573   92.941605
H   11.483484    4.502585   39.619850
H    0.821501   38.369930   74.883980
H   31.811001   92.809021   81.970802
H   88.094772   12.769517   33.053047
H   71.891754   93.128479   58.074558
H   92.320969   57.312504   61.748466
H   99.332024   19.353889   22.834251
H   17.124016   62.432304   18.641605
H   57.199348   86.567787   59.404755
H   74.563202   17.679802   90.221481
H   58.955658   55.371292   65.135216
H    8.132124   21.728634   68.774551
H    0.705867   85.893791   17.806551
H   12.734722    7.096228   36.952747
H   45.373791   60.057846   12.482633
H   68.796684    4.315686    3.456397
H   69.219200   91.189102   39.164425
H   88.183090   73.846123   79.817688
H   19.762737   18.992981   46.779339
H   10.432691   41.237801   77.485252
H   78.935684   94.984207   14.405430
H   82.176903    8.572657   74.796638
H   27.068958   68.027435   89.286438
H   43.748276   46.983917   98.551697
H   38.833992   44.142384   94.503418
H   89.275917   88.855782   29.983871
H   99.771423   42.115337   58.269154
H   20.363319   62.415245   55.485981
H   79.984161    9.870069   27.429850
H   42.659389    0.748418    3.550131
H   17.902451   87.776451   61.810303
H   38.415260   10.308540   40.773376
H   57.193001   69.296524   19.350901
H   24.364418   17.813633   48.917053
H   16.521851   90.787834    9.478916
H   87.394424   36.966885   50.122040
H   60.419807   62.494648   90.321022
H   91.475494   30.811871   34.673588
H   27.977552   17.812490    9.134542
H   56.864857   89.679718    1.312977
H   15.505702   81.828064   98.883316
H   44.328327   88.803825   77.948090
H   60.734398    3.551755   56.001461
H   39.322594   12.574566    1.001104
H   84.043106   84.297020   12.092479
H    2.355250   18.792435   92.748520
H   37.042057   63.173943   19.286583
H   46.774853   85.308632   47.214890
H   90.179337   61.344357   76.762451
H   48.225777   26.643658   63.435234
H   86.576561   10.068417   69.807533
H   49.956429   90.823380   45.833809
H   93.248711   40.870205   85.678062
H   54.923347   90.754608   68.504166
H   74.648766   82.462929   11.340517
H   77.117058   52.621780   42.669067
H   59.351669   93.334587   41.210194
H    1.512840   25.878387   68.140350
H    3.370292   20.665621   79.023392
H   78.278793   58.942108   31.499836
H   53.488144   93.341263   26.660091
H   90.037697   18.353710    2.843503
H   64.880486   31.847496   58.752750
H   40.735516   88.080124   22.642281
H   42.781929    0.683546   72.853317
H   70.109566   88.437462   91.928284
H   97.487648   41.271828   71.585022
H   65.524887   54.612373   71.376251
H   43.846085   73.839973   75.034592
H   87.005409   41.454151   38.652512
H   23.402365   63.343113   63.380928
H   31.377819   70.288033   74.593025
H   24.033806   99.921860   90.304146
H   74.850395   45.390816   73.102737
H   72.871582   74.638153   94.643929
H   62.114830   93.559029   42.019157
H   22.582825   46.059189   64.608055
H   84.834320   34.104733   90.637749
H   32.891708   96.699280   62.491631
H   50.314571   73.792480   45.795471
H   64.727264   86.771500   25.119091
H   10.320607    4.355717   77.663658
H   29.339060   18.013700   57.788528
H   42.758064   73.291107   74.049530
H   85.321289   45.351376   76.675194
H   67.004898   82.926689   89.458786
H   56.495838   24.867104   26.943686
H   78.741959   98.964630   75.346542
H   55.439301   26.954109    6.446827
H   61.175739   54.548889   63.873363
H    9.093975   19.247335   29.176540
H   96.857460    2.524056   36.926437
H   38.253822   41.771744   39.753506
H   51.916641   47.028187   17.046337
H   24.577070   41.052780   58.283974
H   62.243469   85.678841   60.013466
H   24.274284   64.373482   78.405930
H    4.060953   25.779968   35.121380
H   60.014843    4.913092   82.126526
H   65.323547   14.374673   35.914391
H   20.771084   38.146633   59.715176
H   51.874203   45.870598   69.743179
H   62.174694   56.958935   91.292000
H   37.276337   89.507446   64.671753
H   23.594505   51.638012   24.009869
H   27.867104   75.882942   17.652874
H    8.244212    9.901810   74.278549
H   56.803802    4.292711   60.539513
H   51.338131   62.339394   96.753464
H   67.998817   11.529029   24.630728
H   34.052578   31.003262   96.448555
H   31.791908   89.390495   20.629066
H   67.486931   26.580330    4.230052
H   95.027855   56.455147   75.368729
H   14.647210   42.425781   87.632790
H   56.945099   91.935165   15.551014
H   55.109962   98.357979   51.245472
H   85.332344   64.450661   74.943604
H   62.979298   54.275089   74.989212
H   82.930779    6.706992   74.052742
H   41.627544    4.903693   15.262547
H   20.426586   35.010181   74.644821
H   22.263214   92.864510   48.125771
H   59.671116   21.426065   19.412024
H   77.122574   12.186992   19.496515
H   14.346906    5.601544   28.274824
H    7.548444   82.798370   26.238201
H    2.111951   13.668484   45.145287
H    0.341709   10.091104   87.537346
