100
TIME:    9.233, STEP:  9233
H   92.932281   75.311562   90.692947
H   45.482834    5.185722   60.276455
H   38.477673   38.162453   14.958963
H   83.026337   52.251274   34.070122
H   12.463591   12.822723   15.361565
H   84.840942   91.205299   93.120697
H   69.067085   84.794350   12.485806
H   94.190704   87.373856   60.451294
H   26.663109   98.576538   18.902372
H   22.572908   48.957203   69.230019
H   41.423859   37.750717   50.378639
H    3.441505   86.493309   35.713524
H   54.991913    3.127874    7.557721
H   97.919067   76.617195   59.876591
H   92.750008   45.295753    6.886757
H   30.284977    4.176950   66.621155
H   81.644020   92.662483   13.904768
H   98.508408   45.561073   79.464432
H   89.074112   65.691055   49.790890
H   43.761425    9.740877   44.958153
H   16.377403   37.043190    6.644768
H   47.557049   56.340927   33.003021
H   62.468346   19.536680   68.183411
H   61.179958   47.281708   21.350992
H   99.360214   53.938210    4.725513
H    4.071470   53.914658   22.015234
H   65.908089   58.673840   83.163803
H   53.487312   87.404938   71.968010
H   11.933768   86.782188   20.722950
H   55.026985   62.322708   17.385597
H   79.433067   49.996281   78.893524
H   48.734516   97.415634   44.519005
H   20.716789   92.952591   29.578512
H   68.218292   27.573242   82.780235
H   51.171928   60.602333   86.795883
H   75.246490    8.600430   90.399696
H   65.362915   66.402596   35.989521
H   82.374550   89.984550   73.987633
H   55.345745   80.246361   49.565918
H   93.548187   47.821152   64.469070
H    4.241794   72.987442   59.869961
H   22.107071   77.810379   51.321011
H   90.746368   18.874664   68.380943
H   89.789101   67.624977   83.487617
H   55.760780   67.616859   46.205647
H   58.945061   39.016155   20.671412
H   13.876895   26.960791   14.097517
H   56.751156   90.466904   39.862873
H   34.919548   67.772255   76.167023
H   19.584417   71.269249   37.961414
H   42.867611   78.256752   50.759323
H   53.853054    6.984780   67.947060
H    0.383423   75.544800   66.635788
H   62.872292   56.562897   39.242317
H    5.649317   67.741714   78.871017
H    5.095449    2.821504   78.313675
H   81.583740   23.132408   34.122673
H   38.547302    4.943907   75.733910
H   18.465862   28.896345    2.667559
H   49.735226   37.467533    1.002107
H   42.126904   49.193104   94.520699
H   71.220695   42.002609   77.592018
H    0.888502   77.239525    0.335937
H   77.054138   92.059067   76.464966
H   98.795776   23.418850   55.397877
H   34.150978   83.273888   92.111382
H   46.787888   67.568573   12.831139
H   42.579376   45.582954    7.593399
H   17.072649   86.361847   81.155426
H   17.542419   12.395021   82.260574
H   28.836178   67.186424   51.399391
H   12.952420   45.028709   32.821270
H    4.982998   61.606777   25.014942
H   26.955479   65.061989   54.559883
H    7.234314   41.910336    1.354010
H   43.932678   99.321037   74.664780
H    5.335935   26.660648   54.493462
H   65.755165   47.004189   24.353706
H    4.270556   26.398487   20.697252
H   46.730034    6.053635   25.489922
H   91.566826   24.801981   31.827248
H   34.133125    4.352221   14.571486
H    1.880876   61.526646    9.246701
H   85.364510    2.246737   20.125820
H    2.761017   71.339645   52.717819
H   38.794483   48.198265   82.950668
H   83.806038   32.037849   63.808250
H    4.520721   66.241920   99.846298
H   47.296391   80.093819   52.676765
H   50.018093   29.405586   54.272568
H    1.875121   71.984314   28.446190
H   61.447399   89.889572    9.454202
H   77.306656    4.549528   33.006645
H   39.598785   73.328354   49.364559
H   96.956329   22.693516   28.249502
H   56.529541   31.130213   90.552292
H   29.729900   97.541878    6.189569
H   20.455484   43.308903   93.525291
H   68.874229   76.672523   71.677681
H   12.709372   41.700253    8.295238
