100
TIME:    2.432, STEP:  2432
H   52.855865   98.994621   96.919449
H   33.619789   36.603828   31.409750
H   21.558691   48.871567   94.788460
H   81.884811   32.452721    6.856284
H   73.387848   67.693039   99.764053
H   90.305916   98.573326   19.594706
H   25.509716   25.557663   80.638420
H   28.735893   99.001587   84.895851
H   93.844734   52.466537   47.001774
H    8.381021   51.303276    2.922599
H   74.036316   64.099319    5.487288
H   63.020279   45.594162   19.816519
H   88.562859   14.568184   83.407768
H   34.662804   97.579750   42.316837
H   10.082001   52.791046   33.867943
H    3.738429   99.017365   31.164770
H   28.538269   42.829048   94.781219
H   53.115463   76.432411   15.231842
H   83.143791   80.379135   91.490295
H   26.996613   54.166485   81.914528
H   19.958298   14.103657   91.234924
H   95.538559   47.312500   12.170975
H   53.273323   74.842918   62.767990
H   93.082336   65.849731   26.452255
H   42.601067   93.294434   54.505478
H   35.507618   55.141476   61.219566
H   52.365311   41.382030   48.226765
H   27.337107   69.957253   47.161572
H   64.052261   69.742073   42.209740
H   94.247658   30.648239   76.725761
H   11.771047   40.136593   16.968166
H   19.314980   85.318504   74.121651
H   41.664539   90.545967   16.890722
H   80.858727   50.844437   69.294815
H   20.318863   75.079529   72.819389
H   84.007156   75.531425   12.279649
H   13.059796   15.470789    0.097533
H   63.469940   14.441555   94.061531
H   42.418091   28.426531    8.633589
H   34.126453   84.507668   29.378519
H   69.039635   39.630924   99.641403
H   13.046906   21.006821   17.058847
H   32.189075   78.083923   77.138756
H   24.059259   53.532188   18.522394
H   45.697315   35.936352   64.223854
H   46.711422    9.303455   93.044899
H   60.731480   57.098297   48.802589
H   56.369297   20.423052   19.056267
H   36.119202   31.031139   47.461479
H   76.891930   67.764107   13.567966
H   43.359074   34.849998   79.059464
H   23.323027   38.067631   14.404987
H   59.329010   36.110291   61.624313
H   20.374599   67.529945   39.133209
H   47.149353   71.707916   21.042311
H   96.609207    9.976034    9.835785
H   50.429073   19.372963   87.290810
H   44.964935   47.215408   50.913406
H   82.083382   41.527172   24.776918
H   98.532791   14.719046   94.438728
H   13.112844   65.470772   24.778187
H   12.596813    5.306448   85.314209
H   39.193813   41.309486   66.713547
H   10.040014   55.023972   61.115040
H   28.851662   66.605286   22.048265
H   51.943581   21.370979   89.984169
H   92.444221   32.443851   84.478836
H   12.371016   56.626038   82.466263
H   78.113396   75.038322    7.700807
H   79.655579   70.466866   96.612030
H   44.806038   29.926771   32.976833
H   73.436951   70.811707   34.681122
H   48.420990   98.011101   99.387688
H   76.670097   95.477310   58.667564
H   79.427391   32.104427   85.759750
H   83.152428   63.442551   32.287189
H   87.764862   15.756948   34.061131
H   46.240108   91.698051   48.751171
H   78.135193   46.375179   44.813141
H   80.255440   76.503021   11.402179
H   58.474514   54.441814   25.343430
H   23.798935   60.110367   83.414894
H   71.674820   47.850342   61.535862
H   17.469379   20.270967   41.293488
H   33.911835   96.760468   11.997241
H   95.316467   98.385109   10.668735
H   29.582510   26.526718   39.510529
H   95.105560   10.582619   70.454597
H    6.152898   58.762169    8.302996
H   51.317524    9.214920   11.156711
H   23.550110    4.753293   84.821121
H   58.233860   78.410454   79.862602
H   41.325382    0.505390    7.061103
H   82.289955   60.752880   90.795937
H   14.542873   31.885933   71.971672
H   94.794785   99.694954   41.833099
H   69.561661    7.248029   97.322746
H   15.794608   36.944702   17.122337
H   92.858727   47.333691   41.332832
H   90.276718   16.235401   63.449371
