200
TIME:    0.622, STEP:   622
H   21.209219   61.207218   21.871540
H   31.369066   38.454926    5.405038
H   10.131295   85.858231   64.163750
H   30.719181   81.438667   34.510490
H   11.154351   93.410980   48.166260
H   77.191467   42.446915   54.242706
H    8.893722   55.033089   57.045269
H   11.449033    5.381598   11.513072
H    2.941807   81.779373   38.400532
H   97.414108   69.547997   81.004860
H   25.508348    2.754441    5.033226
H   32.357422   52.218971   30.943678
H   20.549892   99.685646   45.635368
H   86.348442   54.818615   60.673336
H    1.178876   74.885246   42.038689
H   18.165813   10.226994   46.082458
H    2.177612   25.609447   96.885231
H   27.491383    1.530941   36.719547
H   77.735245   15.872227   48.107224
H   91.271568   74.458702   22.662510
H   62.669472   95.827362    8.339489
H   81.524727   63.415657   55.853912
H   83.566078   59.764008   39.970329
H   16.699413   91.541924   90.388252
H   19.850189   28.067457   31.779568
H   18.344877   79.289368   94.339989
H    6.293389   66.461708   64.440903
H    3.277180   85.887749    1.736425
H   27.157696   44.918648   36.101540
H   75.787262   30.997633   85.411880
H   12.862761   67.408669   16.661850
H   24.979511   72.459457    3.008134
H   17.893303   17.205267   77.845154
H   83.783760   63.994682   44.967255
H   29.656588   74.016464   31.313231
H   20.583130   41.212181   83.856865
H   97.228546   66.184082   88.822731
H   14.019862   54.636684   97.992050
H   38.932358   32.721745   52.922821
H   86.419312   38.117611   48.774506
H   80.617973   87.378937   14.203774
H   32.353043   35.096581   28.503986
H   69.823807   79.006584   64.512810
H   36.430252   81.787148   32.410427
H   41.829094   87.949951   58.149162
H   35.684128    3.897016   46.842396
H   87.172791    7.497016    4.554375
H   80.815880   65.544777   33.914871
H    1.853630   14.255838   61.441746
H   48.447269   19.525389   89.551590
H   69.121048   65.661079   12.729812
H    6.535608   42.272930   71.754585
H   62.479424   83.496284   12.921341
H   16.721272   90.245010   87.360069
H   61.029648   67.889374   78.419090
H    0.408686   62.939201   91.156952
H    4.340305   18.191017   45.556904
H   71.582138   67.459656   98.408592
H   20.120581   81.856796   16.365574
H   34.268200   93.844154   59.932571
H   49.182343    7.923483   31.075638
H   96.801933   17.329813   51.994530
H   81.971313   33.119766   71.997314
H   33.381645   65.697334   12.196487
H   77.489075   81.773865   33.550282
H   23.754763   31.402124   39.729691
H   71.906105   15.104280   93.727394
H   95.202232   92.318428   94.834496
H   30.110281   11.015429   57.144768
H   43.038029   48.287998   50.962193
H   58.297585   83.199142   83.499329
H   21.404472   13.780978   42.090839
H   89.617813   32.267193   86.704330
H   20.310465    0.568069   71.693642
H   83.796463    7.055270   49.651093
H   62.969261    5.590333   60.381264
H   93.812988   44.171150   66.742226
H   12.406511   12.925951   34.905067
H   14.434788   46.712330   26.477871
H   62.519718   88.536499   76.145538
H   59.581066   23.645861   95.462402
H   43.433537   61.720455   76.047966
H    9.509347   17.856520   79.102882
H   12.217070   74.350838    6.301717
H   25.305122    3.363332   46.956551
H   35.429237   72.408752   19.830803
H   52.976028    3.580112    2.647098
H   72.154762    4.326733   25.850395
H   77.378067   72.987000   78.546509
H   21.530807    3.169625   50.662899
H   25.229801   38.190472   79.055374
H   81.394554   91.887054    6.702974
H   65.406494   12.553844   84.850266
H   42.898312   80.709602   79.593697
H   34.804237   51.758919   83.849648
H   53.452553   36.250031   11.100861
H   84.487450    1.066535   14.780918
H   96.393532   34.374382   52.210377
H   28.362053   65.951385   54.235001
H   73.846413    4.134500   27.343668
H   26.909697   90.988281   86.927650
H    4.776869   82.435883   63.757469
H   31.097898   23.209379   35.840824
H   40.231377   68.644775    5.332244
H   24.832357   22.452629   37.472401
H    2.546221    8.070265   26.006132
H   83.753990   34.840015   54.481430
H   62.500286   48.941238    3.970305
H   82.504524   35.267731   17.604237
H   16.637934   22.734270    7.406870
H   52.220474   92.747246    1.064616
H    1.332509   72.951355   94.862404
H   50.459343   84.707504   85.626335
H   61.930168   11.161900   65.103210
H   51.102547   97.875519   13.378602
H   98.448906   94.622658   96.167404
H   16.869083   13.821652   88.633347
H   38.833019   45.798916   26.342705
H   33.369568   72.055511   64.659988
H   80.863640   54.299007   63.592857
H   44.541512   24.297901   75.002357
H    1.806614   18.430729   59.424744
H   41.445992    5.711372   35.361393
H   98.449234   53.572571    1.136860
H   65.485985   99.493965   80.179085
H   61.717434   72.803802   18.155695
H   85.891426   50.973557   56.301926
H   67.073006   90.566002   38.228848
H   97.168694   38.656162   76.184868
H   86.260559   22.338757   73.009529
H   64.029198   71.546173   18.009716
H   67.037514   89.840134   18.335484
H   91.190376    1.179999    0.216792
H   82.189529   22.797077   54.408657
H   23.297199   94.462952   38.863281
H   52.183807    1.136589   78.053841
H   69.525146   87.537941   74.355309
H   94.476677   52.293652   77.162590
H   56.298065   49.675781   71.459740
H   43.654869   90.769279   84.843140
H   69.529388   51.834999   27.249603
H   39.652634   52.617538   55.151928
H   42.725555   63.792049   86.499557
H   40.209023   12.699953   84.454567
H   58.257732   57.098053   61.559788
H   59.936676   68.556961   11.550842
H   53.765984   95.104912   44.546703
H   32.221703   59.199196   66.633324
H   75.397430   48.843140   94.146957
H   21.638996   92.845345   75.701660
H   62.755699   67.797470   48.460369
H   49.867729   96.539650   36.181313
H   93.921707   17.554974   90.054962
H   20.007877    9.911026   66.512688
H   28.760281   63.967335   67.664009
H   74.842140   44.476093   65.813614
H   63.309856   72.339813   85.278976
H   51.477104   30.530853   18.673615
H   94.898323    0.294978   88.438072
H   59.396923   41.357452   92.900650
H   57.708275   68.890053   73.259102
H   25.668455   21.076675   32.234642
H   81.662560   17.914825   37.073215
H   25.296602   31.401669   54.855492
H   55.296577   35.050285   13.577965
H   18.495205   52.284672   60.213634
H   68.321968   91.388374   56.271297
H   23.965916   48.312759   63.808918
H   99.263557   26.927935   35.954918
H   43.905609    7.576980   86.101654
H   72.067261   10.176684   35.944016
H   32.966408   51.258362   58.631172
H   45.053734   61.039913   79.675613
H   66.522049   65.400917   83.102051
H   53.683167   92.162918   81.269798
H   12.701364   49.724266   23.653234
H   31.493465   64.854385    2.887528
H    5.115596    9.565163   69.764786
H   65.832405   12.499156   64.667023
H   68.129066   58.552788   91.773781
H   74.443588   98.878487   32.837578
H   26.932688   30.572353   83.561707
H   48.046574   89.764847   13.634888
H   59.799873   25.927235   91.243660
H   90.462921   71.765854   76.823044
H    7.257454   39.447128   85.866066
H   44.653442   97.981346    7.729357
H   72.068893   83.405464   38.893219
H   95.555641   62.876888   70.909225
H   56.560112   56.195324   70.529312
H   66.068802   18.385925   76.573555
H   44.521362   95.310394   19.758749
H   12.585549   26.611942   66.557213
H   28.429914   78.776505   41.011745
H   71.785507   37.192814   20.566723
H   76.260757   11.320799   24.332787
H   12.000476   95.975578   16.360212
H   17.807703   89.814095   36.193527
H    6.819253   12.680761   60.932686
H    4.023530   22.050659   92.441620
