100
TIME:    4.048, STEP:  4048
H   43.572174   50.799072   95.439957
H   88.680061   24.218493   33.344803
H   49.336159   65.133324   75.826302
H   82.156052   65.872612   18.277975
H   58.913483   97.222557   55.946426
H   65.253181   96.822594   79.633385
H   40.814465   34.678127    7.011868
H    1.721480   38.805111   36.520168
H   54.120369   97.094589   45.280178
H   64.219353   74.506645   66.207336
H   23.719925   29.122395   49.825230
H    1.337813   26.595758    4.788395
H   85.755936   16.799583   22.792557
H   54.647545   92.598793   65.295853
H   29.740753    8.443884   56.190022
H   38.763763   57.676201   97.021423
H   98.590950   49.713612   41.893761
H   87.640831   97.846245   59.205669
H    8.317314   48.173119   76.625916
H   83.457878   19.852411   91.939323
H   24.062653   53.226833   47.372658
H   50.466049   49.457764   74.553696
H   31.697395   61.700096   16.531796
H   42.938454   85.231079    6.432702
H   84.804840   65.133957   66.435219
H   28.094580    6.993676    9.751816
H   13.014898   74.207840   80.288490
H   90.983551   45.386658    0.575224
H   99.190201   16.358349   65.821083
H   56.211288   90.651421    5.193337
H   75.370705   85.047432   89.114067
H   21.350233   40.668945   24.520393
H   55.493931   72.311455   62.472763
H   49.139465    2.747764    1.216178
H   80.148514   52.922386   71.222275
H   24.521700    2.476725    6.714006
H   68.054062   56.289536   27.431753
H   96.681862   84.870735    8.098370
H   74.206421   93.219597   52.030815
H   81.916771   33.222847   56.523380
H   58.599503   95.081802   37.714825
H   67.809952   93.533905   92.980240
H   46.108631   87.774597   93.865349
H   20.866663   80.611664   76.526245
H    5.522024   72.176453    2.508594
H   25.862911   40.126209   99.603981
H   73.359665   44.982262   64.324669
H   56.455601   37.063049   19.045189
H   83.357040   97.195038   82.998199
H   10.776210   92.348335    0.543009
H   43.235783   78.835060   96.098282
H    1.858576   88.115173    8.317341
H   92.841225   45.480408   67.769173
H   82.950157   41.159645   10.443843
H   18.486160   13.344988   34.776737
H   98.631180    8.275869   54.823334
H   52.876385   72.743309   40.986000
H   24.633293   94.603691    9.287493
H    9.534559    9.806353    0.715534
H   91.893005   38.931164   48.475838
H   15.051373   90.321678   98.782692
H   55.243187   90.263870   12.194062
H   48.879627   31.055298   55.886955
H   21.007959   63.814621   17.235767
H   92.994102   37.536846   72.541618
H   52.670052   41.034676   85.533157
H   62.789932   88.312378   62.499798
H    0.742568   49.047012   59.720409
H   58.655571   58.922867    6.348145
H   12.399248   51.746185   93.209198
H   93.489433   19.973911   13.589012
H   40.190971   17.180115   52.998112
H   43.054703   18.076290   57.960106
H   41.099148   93.213829   62.635582
H   57.340298   34.409969    8.263541
H   21.353830   67.012901   23.550831
H   34.486885   75.693405   62.639988
H   22.162731   86.031960   37.996109
H   55.627594   41.628475   62.850616
H    1.003528   88.491142   72.182426
H   90.088486   71.160080   21.928267
H   45.051605   70.664078   48.286499
H   73.914986   74.826416   15.451977
H   28.646467   58.555244   93.695084
H   55.225510   95.679146   55.344193
H   58.129948   57.746117   22.888779
H   37.511497    9.030357   16.567930
H   21.114962   81.201668   53.645302
H   39.692001   68.786064   95.083382
H    8.440578   42.730751   68.921570
H   89.683411   92.012169   18.948160
H   77.807434   99.932182   10.659313
H   44.938087   48.978012   32.042583
H   38.482586   58.775116   99.754997
H   86.602333   87.134270    9.106166
H   28.269821   35.879524   58.364494
H   41.290863   99.987236    4.384531
H   21.725012   50.703979   91.261848
H   15.875816   54.299633    5.973709
H   90.648232   74.753548    7.782977
