200
TIME:    0.034, STEP:    34
H    3.141192   63.158665   11.817104
H   26.128199   29.870525   81.534401
H   22.455421   60.121567   35.201591
H   10.898685   74.565987   49.886543
H   17.397423   78.508209   56.620285
H   96.320129   58.406158   71.647453
H    0.374705   55.450294   45.664074
H   98.272423   79.990814   32.384457
H   79.062553   90.594528   52.744785
H   18.112820   77.784447    4.197652
H    5.013373   90.193550   86.451874
H   29.925964   36.524406    2.926745
H    6.118159   80.171181   69.734612
H   14.140873   52.337811   32.339230
H   29.567698   70.358788   43.485451
H   35.304897   34.454090   58.766861
H   74.516586   98.070480   25.433670
H   41.453957   73.264038   47.187824
H   58.171436   37.159542   39.451324
H   89.400871   82.533653   45.456303
H   55.612862   66.474915   35.278263
H   94.615120   40.940376   78.513123
H    1.174043   64.039246   54.079063
H    4.279098   86.237251   92.243217
H   94.292702    4.418791   52.760983
H   18.831617   53.194744   13.760244
H   94.906898   54.663303   40.799240
H   89.782745   61.631271    0.189235
H    2.392334   62.791206   39.544609
H    2.358479   15.245871    5.751553
H   13.630442   42.842869   15.942955
H   35.672092   58.678207   88.531395
H   32.100731    4.552881   70.662933
H    3.244766   63.353172   34.689636
H   57.874149   98.313095   35.786030
H   39.790298   54.618843   77.114281
H   80.351898   78.875214   84.408424
H   43.104733   39.426617   24.429600
H   60.694351   53.777180   39.852615
H   92.058319   40.535610   71.743256
H   80.444656   14.850583   94.686668
H    3.085875   47.426582   45.939377
H   80.410965   92.514183   42.679035
H   37.740189   53.229584   11.380809
H   21.738741   70.010101   36.929985
H   43.958710   19.199726   40.447483
H   76.092163   36.304565   91.662071
H   95.130974   65.553749   55.053299
H   79.113647   36.569576   61.017811
H   69.488663   16.871870   14.427818
H   83.108658   73.103493   36.032696
H   29.012896   32.152325   59.111931
H   46.621750    0.317483    5.233130
H   25.472500   77.836502   78.652580
H   85.918442   80.966309   97.435600
H    7.946428   77.424934   71.902679
H    6.018381   15.965929   51.864338
H   65.158066   53.790562    9.021512
H   32.527920   70.498032    2.144142
H   47.867764   97.145912   70.802353
H   51.086685   19.395521   48.255157
H   86.235443   15.936909   47.487453
H   65.772064   20.939032   91.834778
H   19.134853   64.858437   99.068291
H   68.036896   73.008057    9.505772
H   46.820366    8.558046   29.160477
H   93.869972   27.507221   81.579079
H   98.495018   90.981575   83.193108
H    9.195219    3.069453   64.587181
H   46.422779   38.039539   50.993595
H   58.555534   73.029190   67.771118
H   37.929684   29.236578   46.206821
H   70.955704   22.101727    6.393389
H    1.154178   13.492631   54.575977
H   76.636673   97.536629   77.298828
H   48.106865   26.349438   64.223465
H   96.298279   22.281305   75.059425
H   34.185123    2.218767   55.011696
H    9.964405   20.515352   39.500973
H   71.380112   91.815826    4.031135
H   34.624981   33.583481    4.191376
H   17.578617   72.294640   94.225578
H   11.803418   11.406653   96.307014
H   31.391714   55.123482   87.137421
H   46.243919   97.145538   63.620110
H   18.863483   92.981934   32.071083
H   26.622530    2.354851    1.299066
H   77.044594   26.211271    3.672371
H   59.386589   71.538307   76.416649
H   24.475922   76.813683   57.131832
H   49.877823   33.114468   81.670761
H   85.490349   86.728058   93.872910
H   37.473782   19.185398    1.596751
H   69.265717    1.834573   63.448360
H   19.905041   59.712746   59.360115
H   77.803017   23.103561   38.747128
H   76.511192   21.404272   89.457230
H   12.557760   25.237640   46.643147
H   41.685722   71.841614   52.151215
H   63.622631   94.579758   27.200113
H    0.675344   74.730713   59.239151
H   82.912056   73.539978   67.000908
H   18.909208   44.698181   27.623962
H   11.977224   67.559143   81.981903
H   25.611814   30.179909   18.408787
H   79.267784   36.858776   53.535233
H   55.899899   27.538912   57.217941
H   65.964516   26.365021   26.707148
H   67.561378   42.689957   89.171440
H   97.749573   30.932589    4.529047
H   44.484222   97.856895    0.650915
H   77.722336   58.164337   88.164680
H   60.671913   77.884171   98.416161
H   63.921989   23.838451   80.266174
H   70.724678   73.390472   33.995701
H   22.445324   11.823824   69.641190
H   41.044590    5.541941   81.778610
H   41.816265   16.856945   38.096245
H   11.039035   49.979496   93.720840
H   65.346275   42.563412   41.658150
H   38.404549   20.390522   94.270088
H   27.177593   32.360020   42.128647
H   27.269939   30.510677   17.918161
H    7.112374   74.732323   26.886112
H   83.078362   14.048624   99.626358
H   40.175259   56.715687   29.508852
H    0.507015   48.228073   79.010483
H   79.934608   85.954308   33.262753
H   89.932640   59.940388   89.584801
H   57.760468   25.125736   62.992104
H   40.293327   92.541046   95.538940
H   89.607002   84.008224    4.469070
H   93.110420   72.572289   95.842789
H   11.021808    7.721212   47.171227
H   94.249573    5.094876   65.882965
H   67.844727    1.891232   86.716469
H   68.551666   86.039589   45.083611
H   89.461235   70.652138   86.453270
H   40.928741   41.452789   71.598808
H   43.336357   18.970003    1.181613
H   40.419186   69.127274    8.255752
H   66.721664   34.751709   41.444698
H   61.627670   52.969372    6.332376
H   67.152443   33.984703   74.710793
H   30.618969   76.599060   42.332432
H   38.392258   58.426147   39.712234
H   39.859123   97.679924   48.756893
H   48.277397   81.086800   70.006859
H   59.678196   73.392380   99.992325
H    2.861164   86.370941   97.694756
H   83.481270   57.811443   52.899349
H   25.116072   12.809687   54.607903
H   66.605942   39.541271   10.696510
H    4.464303   96.413788   81.043114
H    5.443829   48.438755   57.026031
H   57.386787   43.018116   47.723259
H   57.154949   54.706196   78.316574
H   43.117287   39.965088    4.897909
H   21.810087    2.510533   10.244212
H   65.988548   65.349030   70.335648
H   51.932442   92.778450   88.893105
H   53.276073   24.123848   37.328590
H   56.352077   43.551170   37.317707
H    3.713247   14.127941   80.012634
H   60.926613   15.098424    7.800450
H    8.364505   70.993050   63.427914
H   78.447060    0.898710   50.037884
H   23.452259   21.559998   39.494343
H   91.273842   28.840128   37.343361
H   17.072098   12.014277   92.723114
H   83.300415    3.184001   35.993362
H   53.279396   73.097931   56.825523
H   33.692726   86.305801   96.220291
H   73.757835   79.482422   69.472427
H   81.012390   96.586197    8.916884
H   94.546936   46.548119   23.089109
H   37.533978   46.486008   78.290581
H   99.904243    9.004402   62.246105
H   80.869759   26.168398   71.544189
H   96.099800   52.245354   83.479012
H   85.178787   77.807350   46.508919
H   15.072647   29.854580   62.095798
H   75.118515   90.379501    1.992885
H   46.995415   24.838820   69.611763
H   82.859009   97.269241   79.245529
H   94.947807   34.485519   82.923195
H   24.179384    8.053226   94.701065
H    0.317760   58.499218   18.318542
H   12.583988   60.254772   64.189072
H   45.867531   59.393902   63.100361
H   37.979351   37.839828   80.772530
H   49.341660   79.330963   27.248266
H   99.524803   12.623210   53.087318
H   38.702656   55.308968   29.161486
H   91.963913   63.456593   22.490131
H   74.825211    9.877962   32.388725
H    8.091975   79.942314   96.513748
H   34.896507    1.500115   52.776337
H   14.660367   11.035490   87.230110
H   10.156385   41.971676    0.610883
