100
TIME:    6.198, STEP:  6198
H   98.177322   53.633965   93.471573
H   29.300858   40.724911   68.910439
H   86.302460   19.812786   50.589466
H   82.516922   77.292389    0.428511
H   39.656128   69.554459   97.652893
H   31.906094   94.493340   92.554893
H   28.133488   79.856636   75.144753
H   32.735718   24.807903   39.114315
H    1.269218   90.380875    9.944360
H    5.470636    5.377854   50.394505
H   23.732162   15.632271   42.726654
H   19.279808   34.364170   51.748405
H   48.559616   86.784752    9.157158
H   48.192665   85.971901   28.910610
H   55.886909   16.396912   52.839947
H   52.316010   69.629250   18.552818
H   25.700935   91.920753   37.616737
H   33.608372   93.244537   84.670448
H   41.802044   38.367577   89.897247
H   25.532677   74.189491   38.321251
H   96.478622   39.187122   89.018913
H   56.588638   52.311920   91.461349
H    2.990262   44.214287   55.018661
H   43.174549   10.974337   46.756390
H    7.908786   94.626785   82.313515
H   18.292341   43.431610    7.585652
H   27.618069   84.833817   22.944471
H    9.572942   45.741386   71.647629
H   45.940636   11.423237   64.189301
H   38.651325   37.439445   76.111954
H   59.987663   77.841789   19.012901
H   57.102726   81.266968   25.484123
H    6.935366   15.007242   56.161743
H   39.982552    5.713043   10.639746
H   26.705170   90.394508    2.141205
H   11.419346   70.882637   99.939644
H   74.267281   77.550903   96.843605
H    7.818874   45.528164   59.815983
H   83.452942   46.372063   43.679787
H   79.410706   31.947029   25.679800
H   11.662468   68.849342   88.367897
H   77.880249   65.908600   96.379021
H   64.627289    0.667753   49.161621
H   83.580307   16.676046   86.743370
H   19.025517   87.350754   86.489609
H   98.120689   81.134201    8.341261
H   90.156540   61.906387   84.959892
H   56.570423   59.207367   52.075031
H   46.202286   19.131882   97.232376
H   55.869900   25.069220   50.168251
H   43.076008   71.266541   18.763611
H    6.344088   88.611420   67.176003
H   37.437687   57.946838   42.898922
H   33.160210    6.074365    5.317629
H   47.301231    1.767494   53.066303
H    1.315361    6.014029   81.632248
H   89.178398   10.706063   45.468880
H   64.539703   91.562630   53.909531
H   79.099548    0.649249   35.661858
H   50.013901    4.186126   87.324730
H   50.675465   90.336319   31.151096
H   78.938789   70.251968   14.913186
H   94.842400   84.342445    8.454987
H   68.646347   75.526245   58.866901
H   78.332947   65.821335   72.761681
H   20.593536   34.152031   12.657865
H   90.291000   62.640713   66.301651
H   52.227547   72.007423   62.502842
H   65.811378    4.437569   71.505920
H   55.953430   59.885048   88.681915
H   25.218506   73.689072   87.799385
H   62.912594   45.825500   10.409945
H    2.869547   11.728806    2.828979
H   93.768578   57.146664   34.888817
H   60.999859   37.477367   71.248428
H   72.184700    4.805948   78.882141
H   29.693840   89.347801    0.663953
H   23.173641   45.448692   56.733437
H   58.727940   35.313244   86.832878
H   95.569748   71.385170   86.958000
H   32.157631   93.402817   50.428715
H    6.390001   84.665680   68.478325
H    9.911439   10.771018   20.209305
H   76.561455   42.535667   97.326164
H   50.538292   61.198029   46.925751
H    8.641499   36.716713   72.191101
H   81.105125   52.707695   19.088049
H   55.709892    9.103094   31.314178
H   84.308701   49.077202   77.499153
H   18.351965   54.274975   45.779953
H   77.670341    8.106438   64.352219
H   36.888134   61.628098   51.620918
H   82.757294   13.489285   98.305435
H   46.279789   89.198677   44.720581
H   49.432686   94.549973   58.509373
H    5.851002   50.979034   47.314255
H   70.634300   23.370539   80.736542
H   26.313753   93.136063   54.455193
H   13.454509   63.567440   25.889572
H   24.193079   19.584553    0.666847
