100
TIME:    5.964, STEP:  5964
H   14.001608   75.093010   93.685806
H   35.763191   28.044081   54.155704
H   82.278442    2.978496   53.337009
H   82.477646   86.932892   13.255260
H   41.752045   50.798325    3.997435
H   35.535564   94.746849   69.381981
H   40.396847   64.056923   56.845646
H   51.127655    4.564417   60.600140
H    7.021431   12.879195   24.673983
H   11.862825    2.017737   41.232456
H   45.498276    6.217117   65.265892
H   28.211555   22.634892   68.405052
H   63.491684    0.934941   32.408623
H   59.779121   86.693153   11.102459
H   53.042427   37.298660   64.090240
H   61.724426   90.095680   37.977264
H   44.517769   76.442390   16.314795
H   28.604239    4.630661   92.782753
H   38.158291   28.550333   77.568115
H   31.836494   79.159706   22.389429
H   10.364494   62.483219   95.370934
H   34.154831   52.001282   11.388550
H    6.114758   46.117393   61.713455
H   64.917381    8.175020   64.136063
H   16.277710   13.184242   80.585365
H   19.359045   50.349564   29.590096
H   47.796875   94.560013   18.300962
H   29.317081   34.819054   63.913780
H   40.852592   90.192963   75.250885
H   29.678749   43.230888   57.509354
H   50.777412   56.858234   37.526237
H   42.327763   87.733246   47.146690
H   90.453117   32.127174   35.081177
H   30.095509   27.157616   20.497160
H   32.523331    8.086624   87.894501
H   91.078217   52.554970    0.675512
H   51.823730   86.120239   78.405251
H   17.490242   49.811047   43.303944
H   93.329102   51.470818   66.356392
H    1.451683   53.854176    7.269117
H   27.654099   60.819870   82.854958
H   97.600433   64.990967   84.431938
H   62.612263   99.264282   32.260391
H   98.523087   12.748434   63.863251
H   39.322918   96.584213   66.465927
H    1.140980   76.671005    7.390601
H   88.328415   49.180923   82.714012
H   56.557926   56.797241   37.596424
H   39.362885   38.511078    6.566710
H   50.960873   21.507246   66.532883
H   43.092075   93.857452   16.297249
H   94.972359   10.324482   82.536537
H   32.583515   56.590027   56.490246
H   38.578529    9.892629   94.992027
H   65.932396   81.261673   51.075718
H    1.023914    6.260174   89.598160
H   74.342735   17.458336   23.213600
H   81.964020   13.661283   59.936630
H   60.643669   90.762291   53.625328
H   65.454941   86.200851   93.980247
H   35.914783    1.219223   49.394855
H   87.243904   72.430008   25.501625
H   78.956993    0.309987   24.501068
H   52.577576   74.251556   65.220367
H   69.045929   84.509628   50.970570
H   34.967888   45.784904   98.821556
H    9.065346   54.551617   55.004410
H   68.391457   58.624973   51.316288
H   54.148434   21.251320   86.180908
H   51.213516   48.114708   89.174652
H   32.649651   89.610184   90.605843
H   82.207779   53.591461   93.277847
H   18.127361   23.302765    8.829277
H   98.920891   71.956505   48.792564
H   49.718685   37.143520   53.509903
H   66.653908   89.809258   94.628296
H    8.447131    9.625784   96.524330
H   12.179896   60.750313   43.809807
H   47.507465   36.000576   84.222801
H    7.045133   84.132057    7.117264
H   27.578394   90.981979   36.442844
H   88.826981   83.148193   88.052116
H   95.110405    6.858069   97.924149
H   60.462204   22.511562   18.698215
H   61.931938   75.834084   69.609497
H   14.027683   28.121002   55.941498
H   65.476799   69.721397    7.930058
H   51.946526   27.827986   33.740372
H   79.452744   62.106163   79.412971
H   39.040966   63.902981   37.415924
H   68.094109   95.470917   59.410564
H   19.574503   44.028824   47.163078
H   67.757385    6.467786   80.209854
H   23.665340   75.002144   28.942293
H   53.478127   15.510387   53.132114
H   86.523514   60.219635   59.400589
H   89.208336    9.942367   94.193970
H   26.765429   81.556747   59.152260
H   24.601685   62.558758   45.490143
H    9.658934   25.589336   23.209309
