100
TIME:    0.990, STEP:   990
H   50.372475   31.233192   98.239639
H   73.731575   58.422733   40.449093
H   96.774017   45.128277   11.715645
H   81.642776   91.861290   85.898186
H   86.303711   52.110390   38.861626
H   12.664658    0.136175   76.789055
H    1.085387   28.187033   67.872063
H   42.074249   74.248947   17.295044
H   29.291908   91.108841   37.770050
H   47.785408   30.598663   46.458519
H    8.167633    6.077378   44.387474
H   18.053982   73.314339   22.459551
H   80.287964    1.810863   26.731226
H    6.062872    2.024870   32.579639
H   92.542793   81.593781    3.183087
H   61.718536   25.144077   50.861801
H   44.472008   47.467270   63.492348
H   22.300018   46.557037   65.224899
H   60.680176   19.884386   15.520357
H   65.850990   84.775574   83.727837
H    5.528574   57.660553   30.374283
H   57.275501   45.406624   34.958828
H   72.526100   86.570610    4.024214
H   27.059830   48.555241   33.548676
H   94.176506    7.660053   43.866943
H   42.119572   98.111404   96.380661
H   76.710541    1.322996   19.611639
H   49.007210    2.649111   99.496536
H   32.697739   38.912235   10.374886
H   38.953686   66.337387   62.090694
H   55.045536   10.821699   31.071388
H   28.266241   25.160133    7.614789
H   40.092091   96.049614   86.983971
H   19.931938   82.995186   30.043444
H   56.163826   84.083656   85.012726
H   58.631683   62.254345   17.237883
H   74.752342   68.280128   86.473518
H   23.072906   40.834362   92.303444
H    6.212784   59.374413   47.240562
H   69.945717   19.502504   15.924841
H   67.584702   90.151253   65.668503
H   42.645622   56.291115   49.311939
H   19.768286   69.436676   72.981117
H   16.141222   29.362303   77.530525
H   70.779503   92.831131   40.825523
H   65.307549   81.814995   87.200584
H   46.533558   79.146194   36.082710
H   56.292286    5.576410   29.833494
H   93.970329   50.456741    4.981610
H   46.653255   45.817829   14.423515
H   43.469090   74.065331   63.855274
H   53.244743   71.875092    9.069374
H   29.415697   27.749084   45.372589
H   53.764416   91.051338   75.502762
H   61.947113   45.293797    8.806929
H   94.804947   11.491503   58.924866
H   59.012077   60.980965   50.144722
H   52.341003   83.394218   88.054764
H   68.355141   80.598175   35.480366
H   93.689484    3.881636   35.451622
H   22.150721   32.531761   37.207306
H   63.774109   18.730576   50.561638
H   41.384132   39.643349   65.640236
H   11.020361   47.179840    0.259576
H   71.618492   81.774773   87.758064
H   40.527962   93.057320    4.722240
H    8.138781   82.588959   14.859436
H   11.979815   74.156113   13.530326
H    6.242527   78.651245   98.140450
H   50.440468   97.936668   99.648468
H   90.594643   28.041807   50.273930
H   92.337296   18.669533   29.104383
H   42.442337   69.335518   36.363773
H    8.400928   86.730621   44.369957
H    9.904416   30.052351   76.446465
H   49.064693   71.023460   29.315563
H   56.841282   40.739861    8.551781
H   78.492325   85.987343   69.115402
H    9.004747   50.602390   28.727310
H   50.974106   55.037842   35.631714
H   30.255444   39.523663   39.158138
H   15.603233   50.693008    3.993999
H   80.436577   23.780748   24.192356
H   18.272406   96.877174   73.004494
H    4.124166   86.958832   51.783028
H   28.506374   45.419613   10.531931
H   33.274590   31.371864   70.750092
H   71.892212   26.032276   85.450478
H   76.227730   39.050072   20.100403
H   78.807877   68.547318   59.604900
H   64.537422   26.889330   54.368725
H   51.536930   69.963585   52.385292
H   48.803917   57.292953   95.503654
H   42.915398   73.284538   93.569450
H   39.476322   61.052422   38.834892
H   75.691513   56.636833   16.314400
H   84.021011   24.494307   80.253143
H   10.500094   24.666931   40.196213
H   61.550713   41.117794   62.122616
H    0.723775   53.275402    2.334480
