100
TIME:    8.055, STEP:  8055
H   72.595451   83.339348   91.771439
H   78.017319   41.353199   85.998917
H   18.228998   53.412689   28.786289
H   82.828613    0.783455   98.639961
H   23.019323   18.401020   47.300583
H    3.104571   92.481514   76.460182
H   30.808029    5.248988   20.364658
H   86.779175   85.461784   68.611275
H   55.620598   11.837417   93.053314
H   54.749214   32.042866   23.105679
H   50.998550   90.353149   63.850159
H   48.405602   27.445919   19.565266
H   30.109215   74.426849   24.623537
H   56.245613   80.248116   70.230019
H   78.442024   50.520523   63.534531
H   77.648880    7.209219   64.405548
H   76.371803   14.747137    6.666783
H   73.317352    2.882815   20.300362
H   70.721786   16.269505   87.730820
H   75.499283   34.756886   64.754463
H   86.281609   54.317310   38.617069
H   34.621037   54.777115   33.320602
H   78.196342   29.112783    1.886392
H   70.633041   33.189423    8.839026
H   41.490669   47.359055   96.027931
H    9.627392   88.642075   32.870789
H   67.488251    7.639236   59.794880
H   52.883598   32.419865   33.027328
H   86.318825   79.904739   76.408134
H    9.858074   91.477921   23.737762
H   33.069927   44.362900   72.093117
H   74.354942   29.960651   53.572365
H   37.740215   79.140434   23.454969
H   18.444698   35.529945   32.406052
H   80.488914   49.793480   15.124041
H   72.845154   16.331186   94.102516
H   52.377811    9.543192   43.167751
H   31.064854   11.540112   90.860741
H    5.066526    5.913435   63.722969
H    4.502846   58.101952   71.786072
H   84.749664   32.568985   32.116787
H   21.382545   73.190842   91.182549
H   80.608551   11.807386   83.294319
H   65.003448   47.845299   68.309723
H   57.943398   14.084528   45.398346
H   74.148796   16.550678   15.885607
H    4.667195   62.896492    2.784757
H   56.679256   78.333878   66.975304
H    0.488483   65.333931   23.156227
H   94.856689   53.335690   20.326473
H   42.948498   91.984917   38.338699
H   96.601105   16.294268   45.276367
H   75.955498   68.714355   35.050179
H   90.157745   75.781494   87.261795
H   99.443336   64.507614   68.859024
H    3.628252    4.060645   18.415588
H    6.904824   57.122856   22.085106
H   26.263647   16.191919    6.075982
H   25.554981   79.121193   93.103683
H   27.472099   46.922863   34.507225
H   67.816177    3.977541   86.364876
H   13.030251   52.967270   30.890705
H   20.914101   57.624420   81.114929
H   96.161858   85.642044    8.444283
H   52.040886   17.504519   45.696289
H    6.517361   41.835350   22.458820
H   41.301117   26.845184   55.957806
H   23.951973   78.211174   51.278183
H   58.363792   71.005409   55.038307
H   93.617607   53.224857   84.759079
H   66.249916   47.340172   65.527626
H    9.958114   84.141991   46.473980
H   81.789825   19.879202   55.221684
H   52.884205   39.618725   24.552511
H   50.488266   40.175762   12.037092
H   16.080645   23.822357   53.929222
H   98.348351   28.619751   33.597694
H   10.417766   24.026440   59.288616
H   47.778725   29.858646    7.550091
H    4.500983   70.225365   26.975655
H   68.505089   12.615029   61.419266
H   45.736794   96.708435   13.123219
H   27.370840   41.826206   97.059937
H    4.320977    1.442661   27.717564
H   60.118774   45.031513   66.911110
H   65.908920    4.926616    1.146723
H    5.130057   17.688362    7.636826
H   85.575584   60.506012   12.060158
H   22.848907   45.682381   62.311287
H   54.169224   77.872208   12.164562
H   53.666492    8.378900    3.568791
H   74.287331    1.292772   87.007088
H    1.794632   69.209862   41.910095
H   25.750776    1.860421   69.935066
H   17.325245   28.211746    1.182637
H   59.231567   77.649048   51.397758
H   23.234240   29.938591   73.938179
H   22.729303   85.020790   17.176931
H   24.991234   71.585640   70.347466
H   39.537914   71.927322   21.776180
