100
TIME:    3.127, STEP:  3127
H    5.856354   35.259422   96.283157
H   14.287014   74.286743   75.250229
H   33.505066   98.873474   86.633324
H   82.001465    3.816992   68.763000
H   67.162796   23.400341   80.919220
H   79.531380   97.820381   88.423180
H   89.084328   72.488503   34.988411
H   74.110260   59.126209   21.082851
H   76.760307   85.645020    3.252787
H   89.388893   61.282448   30.139856
H    9.389099   92.064331   38.541065
H   36.492226   80.431122   70.345833
H   44.353561   72.519485   14.330889
H    0.250639   95.437569   95.205437
H   18.536724   90.711319    0.459345
H   75.794327   38.230316   73.473000
H   72.652382   88.797653   58.051495
H   67.966148   42.634727   91.135925
H   93.971352    9.533450   28.104914
H    8.273735   39.409824   29.233301
H   78.716110   44.915070   72.368881
H   62.168884   48.235123   52.985336
H   43.994072   69.190529   42.883881
H   28.509354   74.185150   74.836021
H   17.744801   38.172867   59.633400
H   32.320858   34.435490   96.077873
H   92.434021   12.490724   62.018383
H   68.693840    2.397492   70.135582
H   79.164185   32.797531    9.357718
H   20.896339   13.446961   31.975616
H   39.122303    2.460192   61.980659
H   63.197884   66.113106    9.781975
H   90.618988   39.695671   79.501808
H   10.224050   87.151924   40.014801
H    3.041720   22.543060   15.141495
H   44.435024   30.126772    9.890904
H   79.718636   90.017563   54.860653
H   34.746681    1.721351   43.104671
H   13.079883   13.285444   41.282410
H   68.664154   19.443743   84.060402
H   21.543337   63.475948   16.016462
H   50.584221   52.201012   49.709991
H   38.175518   82.251633   27.340439
H   79.679245   65.181091   86.475304
H   85.411308    8.517128   23.696951
H   37.745014   22.559528   95.865791
H   66.164352   94.894012   55.478348
H   56.406414   27.578680   62.058968
H   56.432808   73.470757   19.736250
H   91.463005   78.337151   64.956696
H   43.306049   67.751816   86.387421
H   57.098820   73.577591   68.781303
H   73.742729   40.140137   21.257626
H    4.281727   56.189697   69.802460
H   91.816513   32.626450   26.944265
H   97.478806    9.245550   86.176346
H   94.490623   99.318184   53.391197
H   93.213615   81.580887   33.012405
H   36.896355   70.892029   71.422646
H   52.668091   68.140610   74.671272
H   56.954384   33.152225   70.589401
H   87.931267   98.836411   53.869095
H   86.352577   93.901909   19.042709
H   57.765961   58.804604   42.243694
H   56.439899   11.095284   86.772743
H    9.248631   86.820473   31.076508
H   36.683876   56.469158   18.033911
H   64.362480   96.373047   15.691283
H   12.750444   25.100044   64.114113
H   93.738831    5.420999   95.148560
H   22.736214   82.638451   24.638454
H   16.131994   47.746140   85.566284
H    3.104804   63.630207   81.571526
H   61.376980   51.497452   17.361641
H   12.937367   33.095982   38.446201
H   99.579353    7.983614   85.521973
H   50.866764   55.519897   46.352161
H   78.892471   46.254162   87.132263
H   11.464776   44.333744   52.570595
H   46.171425   38.650730   51.527328
H   72.072098   61.631908   66.882233
H   75.947113   64.649246   25.299963
H   15.643999   59.452057   27.731083
H   65.281525   79.743011   77.813324
H    0.069735   53.289845   44.624794
H   79.324341   23.913528   58.931591
H   75.999977   75.994545   72.650711
H    6.292196   54.939163   63.222656
H   20.577354   20.065859    2.616838
H   89.869598   80.622513   36.000557
H   51.992340   42.280453   99.498245
H    9.658152   30.673922   93.108070
H   85.901443   21.342108   60.820152
H   49.464771    2.907804   37.656250
H    2.525220   69.632782   87.942589
H   52.198975   72.249580    5.935282
H   14.395995   47.132610   57.353035
H   18.345182   42.862213    6.001684
H   59.750359   50.329563   83.117805
H   33.440823   98.391273   96.505402
