100
TIME:    7.291, STEP:  7291
H   24.261499   53.401131   92.470901
H   99.117783   99.951256   37.826069
H    5.096421   98.448235   37.755856
H   82.700378   32.262177   40.518337
H   29.865316   57.163143   68.016342
H   14.953181   93.309212    0.797931
H   70.847534   53.661869   60.618847
H   46.828072   19.366474   38.758636
H   74.401176   85.293396   41.144527
H   75.616524   21.072954   93.189888
H   22.063965   59.611759   37.443581
H   77.564667   89.150925   73.947838
H   78.826805   20.670895    0.547467
H   94.074898   82.602974   12.087788
H   69.162483   18.764763    0.279529
H    8.367615   74.031433   27.824514
H   37.808327   64.212326   37.116848
H   56.982388   40.058853   46.782150
H   58.821796   84.219666   47.479122
H   96.086807   50.978596   12.737741
H   31.618439   30.375259   59.350315
H   61.375610   53.762894   98.382309
H   88.396843   35.324989   23.746580
H   41.618988   24.049776   65.581787
H   68.816353    7.946571   90.385597
H   13.229626   11.163319    4.766715
H   33.367550   39.398819   44.634022
H   17.348602   96.758949    7.773210
H   69.706581   10.588758   12.522875
H   80.562775   10.387529   63.002129
H    3.001043   75.853195   32.538292
H   26.115322   51.066944   24.299644
H   83.925423   35.037605   54.627815
H   86.163536    5.546106   64.593002
H   99.502647    7.638989   68.643219
H    6.432086   56.491318   96.504005
H   79.100388   37.524048   82.967682
H   62.639862   25.523075   36.946732
H   37.317165   22.557737   37.759918
H   76.462212   29.624048   11.674806
H   36.962891    6.356565   14.117430
H   85.768105   70.194809   52.177601
H   74.033600    7.224447   28.110485
H   13.789412   35.021690   93.611076
H   24.215904   44.225643   80.020454
H   84.011223    1.981198   12.781740
H   98.695602   21.347649   95.450264
H   56.632626   70.464920   19.703274
H   78.152412   28.609440   53.634476
H   78.815674   41.707119   73.746254
H   43.000957   65.744537   30.283840
H   59.471279   87.188110   95.427856
H   60.111233   64.284424   79.419441
H    7.851562   88.243591   53.547684
H   60.274734   97.552834   62.364208
H    2.676691    4.864299   44.423950
H   58.468334   79.167595   49.422264
H   83.153000   88.342155   25.756384
H   65.301323   46.837879   51.755241
H   77.887489   88.198380   56.237206
H   19.622431   39.506233   45.931686
H   40.146095   60.078476   65.461319
H   69.047661    9.758002   33.504700
H   43.699886   81.480240   29.188656
H   21.714329   78.524750   74.547951
H   53.449738   79.816185   77.284668
H    2.597489    0.432375   19.071775
H   76.726448   34.518059   14.754561
H   20.283867   25.901566    2.952893
H   78.101189   14.853443   86.379501
H   90.509621   99.322067   74.690590
H   72.870674    9.509711   90.473824
H   31.604895   57.668621   74.809387
H   69.702431   87.971985   69.947174
H   13.686311   39.050793   54.110188
H   98.018700   74.858421    5.338199
H   28.961502   94.745430   20.048170
H   74.524765   73.980553   17.093515
H   11.144160   32.102757   99.024391
H   41.967117   11.843957   92.795113
H   53.548241    4.711099   15.755988
H   88.407478   91.753906   77.038689
H   79.047676   29.049353   24.300957
H   51.757938   36.066158   97.497612
H   97.318542   92.825829   40.971626
H   83.488754   76.865982   48.092438
H   54.104191   73.237373   71.206352
H   73.288353   21.640436   19.981575
H    6.991548   88.221382   68.559822
H   21.716139    9.303135   84.852280
H   22.400501   67.123161   87.434372
H   17.759066   43.831940   72.446602
H   52.820606   46.286289   82.828804
H   51.912857   55.509361   18.419687
H   30.536350   96.645584   83.626221
H   96.128265    7.818687   90.859123
H   83.877251   86.095383   17.876762
H   24.204004   47.217411   32.515472
H   61.386620   68.286507   34.339771
H   92.083748   91.535599   95.374680
