100
TIME:    2.355, STEP:  2355
H   58.063141    6.055866   96.989944
H   35.761681   32.428726   26.552603
H   20.235136   43.331787   95.691978
H   81.871887   35.625023   11.077042
H   74.077530   61.521152    1.851765
H   91.499641   98.656746   11.969059
H   29.545296   20.358025   74.616920
H   34.787941   92.339752   91.965385
H   95.737541   59.869751   51.848934
H   10.485022   50.197670   99.907219
H   81.198669   61.001041   12.904306
H   65.958969   41.734528   25.297258
H   93.461128   19.226814   91.061241
H   38.475441   97.817085   36.456890
H    9.145290   59.669067   37.569550
H    6.834584    5.752164   37.556412
H   34.728958   37.736916   87.770432
H   51.469978   80.176903   17.901569
H   81.944191   77.149261   87.433273
H   29.070946   55.801395   76.672005
H   24.527588   21.769466   93.325119
H   88.156494   47.210281   18.728241
H   54.301384   75.469154   64.970978
H    0.236470   64.926239   32.171211
H   45.355095   99.401703   53.937401
H   35.860683   57.435520   68.436913
H   59.005409   44.583118   46.698772
H   33.834076   66.363152   44.616093
H   62.377991   62.755959   45.849663
H   91.295067   32.553970   70.604393
H    8.741792   33.231548   23.061043
H   14.453178   87.446297   81.249931
H   36.240490   96.179741    9.953954
H   77.605354   57.901047   72.538788
H   22.233112   80.900116   68.130257
H   77.312424   69.482903   12.544301
H    5.674523   18.290907   94.030212
H   66.652718   15.850880   88.627495
H   45.668526   30.104033   16.095255
H   41.378689   91.715843   23.320303
H   74.302132   36.989101   97.827316
H   19.967224   17.550774   13.441439
H   31.525831   77.622177   71.576653
H   28.976034   52.241531   10.993758
H   52.376186   38.974125   57.634865
H   47.704823    7.834797   92.732368
H   60.129330   52.910858   48.062973
H   56.365185   19.630270   14.291939
H   33.868629   37.408054   50.533325
H   75.277580   66.592705   18.953243
H   43.364948   42.283760   78.247589
H   19.581179   45.212948   19.460110
H   57.731697   35.663818   66.096397
H   22.157551   68.785942   35.735321
H   53.279533   64.957962   20.389051
H   96.512863   10.056957   12.457047
H   45.547840   21.594749   79.967491
H   50.698578   54.487030   52.896683
H   76.010185   38.273800   30.688269
H    3.614002    8.800352   96.628792
H    8.255550   69.051949   30.781475
H   15.329399    6.023300   88.797867
H   33.970676   46.560234   71.996017
H    4.752505   54.605110   63.205822
H   25.795383   72.754852   14.877393
H   56.673836   25.198891   85.431328
H   98.621986   29.781809   80.761368
H   17.690010   52.222412   78.785217
H   74.276085   80.571053   12.530196
H   78.095276   66.594307   96.774170
H   47.251060   35.165886   33.900913
H   79.786255   73.367172   29.043390
H   53.441452    1.819935    1.361953
H   78.364342    0.349757   63.243904
H   75.714622   31.994585   79.922714
H   81.332466   58.507271   37.468029
H   80.774048   22.430826   32.699390
H   42.622509   96.732613   44.498524
H   74.442398   46.601353   43.953682
H   84.031654   80.696335   18.035713
H   56.967670   53.645214   20.741535
H   18.021233   59.607498   89.853493
H   66.803574   46.564972   54.201969
H   12.172328   13.681978   48.326599
H   37.661026    1.576655   19.461472
H   97.088257   95.557060    5.321533
H   24.439856   32.125244   35.838882
H   93.866013   16.747330   71.255898
H    4.554777   63.049477    8.932903
H   58.125637   12.383110    8.404298
H   20.398956    0.595564   83.195023
H   52.536053   72.620415   78.395119
H   36.384815   98.197922    1.104078
H   74.847969   56.081959   85.603935
H   15.874359   38.783340   70.202232
H   88.434906    2.735518   45.810226
H   75.673630    2.829266    1.751092
H   15.511891   36.289093   18.354542
H   96.526848   47.001774   47.782593
H   85.494766   18.213097   70.865509
