100
TIME:    0.065, STEP:    65
H   12.926932   16.060364   99.086502
H   99.462090    8.268955   82.100708
H   80.881226   78.580269   22.576660
H   81.487518   29.972887   36.600357
H   94.588852   77.967560   63.942879
H   27.008396    1.142907   85.182732
H   49.563053   65.728065   95.535568
H   14.777426   94.225769    2.225296
H   52.030174   80.043854   95.995049
H   73.064262   17.320560   10.233965
H   94.208893   68.857941   33.488602
H   53.361103   26.948601   88.302620
H   39.127670   57.774811   18.668674
H   51.863651    4.876857   62.187798
H   81.293633   64.214981   47.648655
H   98.908569    6.052831   27.644627
H   18.840086   86.295662   79.272865
H    2.533821   91.539566   97.292770
H   46.276451   81.080521   66.785538
H   90.889900    4.169493   20.622446
H   60.419357   49.747009   55.476936
H   68.580421   44.185730   13.720688
H   84.876183   94.093575   30.491405
H   13.002369   37.461338    2.246680
H   27.257902   81.017906   37.038223
H   46.355839   25.677769   83.077904
H   56.474499   39.775356    1.256212
H   27.056015   59.473156   68.924789
H   12.584447   54.989162   54.099487
H    3.486463   89.230911   88.556236
H   18.658663   27.871119    4.268468
H   69.861511   50.714218   93.246727
H   74.937073   63.726494    3.652668
H   80.848503   67.765839   69.013069
H   79.156151   54.006699   28.686661
H   78.206566   89.591972   20.420675
H   86.034599    2.153451   13.586107
H   61.301704   57.764561   27.028429
H   47.798992   79.120430   35.896919
H   57.070438    6.097713   43.148300
H   30.799572   58.409252   43.869381
H   25.779343   14.773720    5.854177
H   11.801648   63.889721    6.168623
H   75.208954   13.861184   87.086807
H   51.016647   29.327347   61.669655
H   77.121284   64.426079   83.573189
H   36.766407   29.246944   28.178656
H   56.242886   96.051117   72.599777
H   66.927177   27.065922   41.881599
H   27.253042   31.738735   79.118423
H   43.534237   63.369675   54.111637
H    8.292302   57.708145   69.795822
H   10.227728   22.385620   99.094368
H   75.179306    6.141778   34.683979
H   35.585083   64.204056    0.957740
H   93.647568   12.464085   90.414047
H    0.373422   87.671257   62.169487
H   21.219954   70.748055   11.880726
H   95.404076   41.515457    6.492972
H   54.733620   32.783981   61.751434
H   63.801010   75.547226    9.328469
H   96.604156   27.340347   92.413040
H   78.642418    2.720632   29.098846
H   47.503120   42.148064   25.376112
H   34.901398   55.653515    1.614135
H   97.352455   39.041828   50.029171
H   82.353325   50.608730   70.200485
H   75.875725   21.254700   69.309975
H   60.143570   45.115837   56.156925
H   31.703571   51.413765    1.594080
H   19.968843   90.981636   61.367832
H   68.606590   49.368309   61.381725
H    2.753208   15.092007   60.082989
H   28.760262   45.266850   99.345467
H   65.304001   28.736185    6.325150
H   27.194464   11.738054   91.556198
H   72.857208   20.910397   92.181946
H   35.034149   46.469913   18.029678
H   64.670204   53.309406   18.413227
H   96.337723    5.413733   15.321238
H   12.154127   29.953360   83.873672
H   46.201221   44.652054   81.345276
H   21.908714    8.342271   36.090698
H   54.642059   17.723728   57.493172
H   49.166115   44.819809   41.451180
H   49.803043   11.436248   46.298817
H   71.495918   98.626884   26.642651
H   57.001541    0.090134   95.062370
H   57.032173   90.553444   27.669239
H   60.587959    6.612677   26.535490
H   26.682650   76.940567   34.834423
H   83.095970    0.395406   34.763489
H   89.454826   29.579062   23.943350
H   53.510956   17.174921   31.201672
H   55.467915   43.907749   17.581032
H   99.290283   93.164848   64.091576
H   57.442863   71.410622   33.450676
H    7.104054   16.791107   54.995140
H    5.615580   37.130482   39.606869
H   43.278240   77.033089   91.425400
