100
TIME:    6.379, STEP:  6379
H   85.936844   37.035301   93.305862
H   24.302616   50.533588   80.322365
H   89.415054   32.834221   48.464230
H   82.547302   69.835419   90.507935
H   38.034927   84.062408   92.745102
H   29.098682   94.297249   10.479660
H   18.647255   92.077782   89.299187
H   18.509476   40.466160   22.494938
H   96.819878   72.978516   98.550865
H    0.526262    7.976919   57.481388
H    6.895981   22.915228   25.292267
H   12.371063   43.436817   38.864418
H   37.009598   75.839577   91.172050
H   39.230492   85.414009   42.685291
H   58.085335    0.229115   44.136005
H   45.038559   53.798378    3.527949
H   11.145919    3.892981   54.093880
H   37.479092   84.437027   78.395546
H   44.620502   45.961258   99.433884
H   20.656647   70.345009   50.644585
H   85.737823   21.167492   84.105598
H   73.941284   52.552200   76.047516
H    0.573414   42.742226   49.840210
H   26.356552   13.139620   33.313129
H    1.435407   80.273499   83.650246
H   17.467241   38.080544   90.564812
H   12.010216   77.310562   26.536245
H   94.300613   54.189857   77.629776
H   49.876259   27.844547   55.633118
H   45.591831   32.959740   90.501144
H   67.111229   94.073128    4.692797
H   68.531219   76.265274    8.728035
H   19.684959    1.764825   72.467651
H   47.630089   89.125504    3.014892
H   22.200607   76.690254   13.153777
H   27.152964   85.059166   99.370705
H   91.628212   70.922485   11.105502
H    0.338049   42.215336   72.589043
H   75.813690   42.428154   26.139566
H   62.361996   15.002424   39.920925
H   99.292725   75.060722   92.632179
H   62.626602   66.618393    5.619644
H   66.184967    1.753545   62.234795
H   72.022003   19.714071    4.441012
H    3.325142   80.208633    1.978099
H   95.784172   84.586502    9.076601
H   91.570602   71.749588   86.697090
H   56.580090   61.071609   63.274296
H   51.492592    4.141946   90.012924
H   59.668812   27.824846   37.512115
H   43.063580   53.792374   20.671352
H   15.141766   71.816528   55.294563
H   41.192410   58.996338   32.385975
H   28.969116    3.120921   13.304183
H   32.889946   17.629745   54.606030
H    1.540796    5.823634   75.470581
H    0.653788    5.483077   62.683434
H   51.061920   74.469597   49.247543
H   93.375504    8.297822   21.767036
H   38.070320   18.098850   82.176659
H   62.092915   81.918228   17.039471
H   72.514748   68.567245    6.723265
H    7.130304   71.991493   96.043274
H   81.074631   76.512222   53.952206
H   85.516495   51.364651   89.617195
H    9.475056   25.153954   23.360106
H   75.769241   68.898743   75.040115
H   39.724693   82.358803   71.155685
H   74.831551   91.432083   60.154285
H   59.619774   68.988701   88.300781
H   19.470425   61.374023   85.628578
H   47.988987   39.818497   23.661949
H   91.068054    2.776299   98.188293
H   89.783241   45.691929   24.134714
H   69.726799   37.735600   84.969254
H   76.462791   16.406418   66.702423
H   46.132412   73.682640    3.874059
H   31.677349   33.612823   66.729546
H   67.407570   34.781590   88.851784
H   86.693192   61.525398   71.364647
H   35.699692   95.275345   61.246845
H   19.972380   85.839600   53.336720
H   21.360649   13.797650   37.447334
H   89.014595   58.024071   80.793785
H   41.725258   49.875862   29.379776
H    4.475408   43.365845   84.760239
H   93.193703   39.547523   27.718801
H   58.620872   94.619568   29.437508
H   88.064804   38.999245   76.018806
H    2.348883   46.827671   52.249565
H   85.077599   17.879902   68.174606
H   50.280300   75.241211   55.069077
H   94.359787   18.920444   12.302440
H   63.771908    0.179753   56.925156
H   46.303520   78.337967   62.668705
H   20.800873   43.831390   37.965424
H   56.267204   33.757248   70.327164
H   25.964380    2.092523   50.821991
H    4.832324   64.348274   10.728447
H   35.435154   14.939827   83.231300
