100
TIME:    8.197, STEP:  8197
H   62.992424   70.317192   91.641434
H   74.095505   49.048405   94.951920
H   20.669840   63.628906   27.119518
H   82.852448   94.933159   90.857002
H   21.746901   29.782948   43.450272
H    0.902327   92.327675   90.522377
H   23.365791   14.837932   31.469242
H   75.618256   97.747246   55.573250
H   52.129967   98.184433   84.115479
H   50.870735   34.081776   28.666096
H   37.790054   96.066864   50.172562
H   42.985481   34.563686    9.457928
H   21.054375   65.831360   10.512049
H   49.214516   79.810432   81.035591
H   80.166756   37.836380   56.706024
H   71.939499   94.789268   52.618439
H   64.953041   24.138943   19.593603
H   76.352966   95.973122   15.378086
H   72.934036   22.226978   95.212601
H   71.672806   31.741808   74.422493
H   77.855125   40.180363   34.763508
H   48.234715   54.965622   21.227982
H   76.300438   27.958448   97.823608
H   57.439171   34.888153   98.292877
H   36.411812   36.097382   97.076637
H    8.957867   84.455917   19.507877
H   55.243179    1.736313   62.612736
H   40.902565   39.047947   37.721588
H   89.406441   92.788223   69.695549
H   15.302841   87.963455   35.026123
H   38.659054   57.095795   60.858528
H   83.320946   26.037754   40.426704
H   47.743008   68.750877   36.247452
H   24.444965   22.516457   26.424166
H   76.954948   39.042076   23.763922
H   85.189117   27.453646   93.656166
H   65.997063    4.342455   54.356838
H   25.195675    8.941368    0.881869
H   99.072533    2.819860   49.961952
H   91.127716   44.807869   82.957825
H   75.044800   37.440918   35.462246
H    9.415446   73.747696   98.432487
H   81.830597   12.659189   93.551704
H   55.936810   50.229805   82.194244
H   45.626442    8.482311   57.550262
H   72.315727   19.258572   16.462503
H    5.777247   70.618782    4.148515
H   56.687923   79.796432   75.761467
H    4.639012   53.573784   17.491806
H   97.838135   55.497021   10.397738
H   42.938747   78.275902   39.835922
H    3.502403    3.117685   35.955017
H   78.900108   69.537720   26.803194
H   86.868622   73.465240   93.528030
H   88.137245   76.951248   70.065903
H    3.805113    3.911275   13.581573
H   15.906850   53.025536   35.590446
H   15.690450    2.781427    2.418211
H   36.754589   85.120918   82.202774
H   18.101997   57.837856   30.468407
H   76.773514   97.373779   75.292793
H    7.990395   51.645554   24.465755
H   30.554504   47.934723   71.377563
H    5.912633   86.415573    4.588706
H   57.677681    6.162879   58.919952
H   97.794411   34.776085   30.854969
H   29.908255   31.754494   62.813396
H   14.143053   86.332146   58.066605
H   65.441254   60.802193   46.131889
H   96.501549   60.356709   84.457901
H   61.740368   37.677559   63.824562
H   98.264847   79.427147   56.881954
H   72.531311   12.855146   51.580463
H   49.758671   30.632053   16.115736
H   57.328690   40.384853   22.803564
H   19.438021   32.923294   44.374947
H   11.245152   16.328873   36.116539
H   17.088415   14.741924   67.131592
H   54.587730   29.441547    9.134796
H   97.537285   62.490074   14.742224
H   71.285027   14.084085   69.906418
H   56.391777   97.629303    1.243544
H   36.352814   44.200962   10.583379
H   14.090302   13.594057   14.748466
H   53.204681   36.148930   53.145760
H   62.641010   10.142520   11.007844
H   14.613954    7.363589   14.407921
H   87.859337   49.142502   10.587852
H   25.796227   37.775917   61.149910
H   41.614002   72.030655   17.240507
H   59.477711   16.046207    6.567706
H   84.793892   11.972332   89.713356
H   10.896961   73.469688   52.891174
H   39.474121   10.475331   79.509926
H   14.869778   15.491852    4.445488
H   70.960175   72.041504   44.063316
H   11.963261   38.087593   65.771706
H   22.455210   92.047554   14.326033
H   18.226646   72.198830   58.453678
H   48.357662   68.282852    8.096574
