100
TIME:    2.791, STEP:  2791
H   28.577984   66.072411   96.590775
H   23.633568   56.069565   54.055408
H   27.729551   74.699890   90.575951
H   81.945068   17.661047   87.179016
H   70.172318   96.468475   90.029816
H   84.740364   98.184395   55.148571
H    6.694797   49.800133    8.712775
H    0.519199   30.058947   51.934292
H   85.019829   17.950256   24.403137
H   98.571266   56.457985   16.981531
H   40.643005   78.544556   70.905502
H   49.317299   63.589081   94.263069
H   65.725471   92.847855   47.725945
H   16.887001   96.473213   69.637321
H   14.449261   20.723871   16.611025
H   89.303848   67.618011    1.363672
H   99.671425   66.572311   27.464090
H   60.787270   58.974327    2.784672
H   88.736732   95.437897   10.404108
H   17.325371   46.543980    6.356859
H   98.654831   78.364777   81.489731
H   29.956238   47.789078   81.598862
H   48.480156   71.923195   52.496918
H   59.727371   70.155365   99.788902
H   29.761097   64.820282   57.154045
H   33.861507   44.445866   27.571352
H   21.407398   26.457987   55.350780
H   97.045891   86.714165   59.029453
H   71.858276    2.313640   25.239737
H    8.013190   21.763077    5.265440
H   25.897921   72.329239   88.563911
H   41.982552   75.398018   40.887199
H   66.952972   64.279411   49.232277
H   96.027046   17.944138   54.170319
H   11.394340   47.941986   94.681709
H   15.220910    3.731885   11.045751
H   47.491920    2.322469   28.385069
H   48.633034    7.870815   19.395077
H   27.263466   20.605452   73.843689
H    0.312818   50.899651   57.625210
H   44.506275   51.947994    8.100989
H   80.781975   37.120079   33.924103
H   35.281353   80.236740    3.070954
H    1.135492   59.549667   53.622597
H   14.557394   21.773228   94.943947
H   42.079853   16.150837   94.502022
H   63.538906   76.621552   52.250931
H   56.388470   24.119268   41.269173
H   46.612129    1.299747   33.139496
H   84.418571   73.225578   88.458649
H   43.331684    0.190054   82.844696
H   40.769474    4.754838   90.837456
H   66.775200   38.191895   40.772667
H   12.061878   61.672974   54.975311
H   18.568382    3.178649   24.088026
H   97.058395    9.598743   97.614578
H   73.188133    9.013782   21.434898
H   18.232758   13.311952   41.666702
H   10.397697   56.695492   97.216347
H   74.840851   42.313992   84.227913
H   35.759560   48.776615   96.788132
H   99.856560    1.964241   69.072220
H   63.545841   16.827879   42.084885
H   34.692108   56.976845   51.367107
H   43.102131   37.931438   55.482254
H   29.889534    3.524045   11.210691
H   63.641396   44.854046    1.811051
H   87.572197   77.157227   99.628540
H   96.004234   49.242867   85.185890
H   86.930237   88.522041   95.856079
H   33.406517    5.499717   28.669521
H   43.836220   58.897263   60.966850
H   25.013491   80.251732   90.184807
H   68.770958   72.760437   37.331123
H   96.737572   32.616611   12.974541
H   91.637703   86.449821    8.131235
H   20.359320   84.641739   40.410023
H   63.106579   68.225227   68.577820
H   95.352249   45.320683   48.820229
H   62.649452   56.951389   80.474106
H   65.499344   58.155834   46.799961
H   50.736534   62.454910   53.395973
H   94.386215   53.843170   95.728943
H   42.166515   50.991058    8.502747
H   16.430618   74.306534   77.196327
H   87.055786   11.571671   35.598827
H   53.559303    0.424476   56.628983
H    0.884543   81.840286   66.718666
H   13.603636   38.773293    5.365847
H   19.576340   94.444778   23.989815
H   38.241852   24.138172   92.402542
H   84.796814    5.406002   86.704506
H   64.359970   11.261986   34.835091
H   16.988087   82.527962   15.001847
H    8.335037   99.727997   80.221397
H   24.446777   85.518135   23.290390
H   41.065598   27.850140   76.676521
H   17.112150   40.001373   11.377935
H   75.756706   48.881199   11.261871
H   12.571823    7.014086   28.872709
