100
TIME:    4.040, STEP:  4040
H   44.113190   51.532715   95.447281
H   88.901009   23.784960   32.840347
H   49.198647   64.557762   75.920174
H   82.154709   66.202202   18.716482
H   58.985138   96.581322   56.163345
H   65.377205   96.831261   78.841148
H   41.233715   34.137905    6.386250
H    2.350266   38.113033   37.254726
H   54.317024   97.863754   45.783779
H   64.437981   74.391777   65.894104
H   24.464066   28.800495   50.595798
H    1.643170   26.194757    5.357831
H   86.266434   17.283379   23.587479
H   55.043663   92.623451   64.687088
H   29.643433    9.158468   56.574604
H   39.085419   58.375908   97.685486
H   99.234261   49.184498   41.165489
H   87.469933   98.235283   59.483074
H    8.192711   47.837486   76.204407
H   83.673454   20.022303   91.394646
H   24.537384   54.023281   47.589760
H   49.699081   49.447144   75.234970
H   31.804207   61.765160   16.760708
H   43.681740   85.135132    7.026871
H   85.090973   65.768356   66.376137
H   28.131292    7.232041   10.501648
H   13.704748   74.540359   80.129799
H   91.658600   45.013245    0.310774
H   99.016251   15.632541   66.199257
H   55.904526   90.849419    4.557374
H   75.055885   84.330025   89.747002
H   20.845106   40.889954   25.260994
H   54.930393   72.896782   61.752060
H   48.801453    3.480907    1.553189
H   80.347366   53.527122   70.735092
H   23.826052    1.848272    6.741617
H   67.286728   56.582504   26.801382
H   97.012550   85.017097    7.533846
H   74.544067   93.393913   52.806084
H   82.670311   33.971809   55.893925
H   59.146255   94.807266   37.526348
H   68.528946   93.174896   92.604385
H   46.039722   87.726624   93.287468
H   21.377497   80.477631   75.744019
H    6.215963   72.492126    1.823993
H   25.966122   39.973621   99.571510
H   73.297165   44.547203   64.247887
H   56.455173   36.980652   18.550194
H   83.123154   97.857635   83.317291
H   10.608424   92.226631    1.102522
H   43.236393   79.607399   96.013931
H    1.469812   88.857483    8.842548
H   92.675331   45.434021   68.233772
H   83.135460   41.290199   10.090846
H   19.123123   12.643877   34.708683
H   98.621170    8.284292   55.095673
H   52.369244   72.974144   40.225136
H   25.228996   95.359184    9.493563
H    8.903639    9.468325    1.329700
H   92.420959   38.316235   48.703377
H   14.546719   90.693748   99.406471
H   55.527122   90.338333   12.556046
H   48.336475   31.601227   56.435539
H   20.458612   63.771103   17.452991
H   92.676598   38.175823   71.796623
H   53.161507   41.432381   85.060135
H   63.431778   88.035767   62.113567
H    1.295195   48.589493   59.337963
H   58.256828   59.497696    6.849899
H   12.237169   51.343781   93.226044
H   93.743462   20.518253   13.684990
H   40.850578   17.445618   52.412357
H   43.576309   18.471981   58.165245
H   41.275295   93.720055   63.110924
H   56.954617   34.398556    7.657070
H   21.164682   66.500206   24.089130
H   33.760506   76.386765   62.498508
H   21.786877   86.555031   37.554276
H   55.243988   41.651974   62.761322
H    1.395869   88.926811   72.871635
H   89.931992   71.077316   21.450148
H   44.451324   70.611832   48.955444
H   73.408882   74.692871   14.690014
H   28.096083   57.870674   94.425797
H   55.615036   96.179512   56.119705
H   58.314091   57.452232   22.333237
H   36.977196    9.612022   16.186460
H   20.986208   81.842171   53.728493
H   39.525986   69.231499   95.148811
H    9.147899   43.059914   68.635559
H   89.356018   91.580162   18.779215
H   77.215515   99.330620   10.506863
H   44.425270   48.737961   31.423929
H   37.709332   58.289825   99.215569
H   86.740639   87.850822    8.922343
H   27.609055   36.195442   58.777702
H   41.925873   99.528130    4.844629
H   21.695654   50.635864   91.389900
H   16.256920   54.265148    6.643814
H   90.151283   74.958870    8.553653
