200
TIME:    0.672, STEP:   672
H   22.745588   61.041279   22.726509
H   31.814718   39.184868    7.434910
H    9.083350   88.046722   66.626518
H   32.404587   82.023079   33.203003
H   10.623488   94.678223   47.447380
H   75.564880   41.089836   52.762794
H    9.618133   54.997612   58.013058
H   12.569505    7.540526    9.738332
H    4.972251   81.029785   37.180782
H   95.654007   68.847618   79.032661
H   27.251093    3.822497    6.613274
H   32.564178   53.553543   33.326103
H   21.777081    1.345175   43.586113
H   83.985237   55.029568   63.082699
H   98.764908   75.270149   41.915665
H   16.708408    8.166866   45.003853
H    4.529572   27.951195   94.457558
H   26.304153    3.934725   35.829388
H   79.398834   14.062105   48.843269
H   91.430641   73.772057   20.724262
H   63.269524   98.323318    6.048811
H   80.411598   65.326820   53.927109
H   82.068810   59.400467   38.770607
H   17.758469   91.997780   90.231468
H   22.023422   30.078375   29.995434
H   18.303488   81.508377   92.688606
H    7.261679   67.464973   66.451248
H    4.424744   87.950356    1.867990
H   29.263599   43.398872   35.808762
H   73.527817   32.337093   83.682297
H   12.797482   69.497597   16.722980
H   24.070278   73.631332    4.239199
H   16.685188   18.281107   78.455887
H   82.128944   64.049232   45.841202
H   27.257048   71.950424   30.932810
H   18.949867   40.072159   84.430214
H   98.663635   65.104904   89.198097
H   11.546651   55.930058   95.744049
H   37.081848   30.931374   54.034233
H   85.939804   37.911999   46.821381
H   80.632851   85.043198   15.863406
H   34.841751   34.048111   27.021309
H   68.923538   77.857979   66.369423
H   36.318863   84.215584   34.198566
H   43.537506   89.475449   59.953514
H   34.980507    2.595763   47.386181
H   88.115021    5.047385    5.650552
H   79.598610   65.544014   32.117386
H    3.787323   12.358456   61.477795
H   46.657986   19.751028   87.436340
H   67.931625   65.028221   10.748315
H    4.624302   43.133526   72.829567
H   63.828110   82.066917   13.574369
H   15.977118   91.300156   88.100502
H   58.913254   66.777390   76.802040
H   99.767754   61.707245   92.794220
H    4.197612   18.380226   45.020557
H   72.128403   68.621994   97.506035
H   19.065531   82.822678   17.574833
H   33.111774   93.563393   59.008270
H   49.020409    6.947969   29.614704
H   97.700676   17.448259   52.377907
H   83.348801   34.155457   70.310455
H   34.593193   65.768669   13.312859
H   78.292831   82.519257   35.594959
H   21.793341   33.344597   40.628433
H   70.038429   14.049563   94.760414
H   94.922234   92.432106   95.824409
H   31.888788   11.691108   56.511909
H   42.750210   49.159466   50.959522
H   58.275650   84.063934   84.836761
H   19.999233   12.466767   41.740841
H   91.204727   33.131603   85.030060
H   21.939436   99.469048   73.149330
H   84.405289    7.864653   47.300095
H   64.233070    3.825105   60.054535
H   93.601654   46.032532   66.034981
H   10.554619   13.836424   33.195320
H   14.814922   48.939922   25.370464
H   61.766125   88.257645   73.774323
H   61.703182   22.800810   94.720062
H   45.632137   60.821140   74.502251
H    9.314273   18.404978   77.639946
H   10.586573   75.985817    7.931284
H   23.524612    3.892061   45.539581
H   36.837814   70.659332   18.789963
H   55.216972    3.684301    2.761729
H   71.738960    2.465790   27.736286
H   78.908524   73.108688   78.726562
H   21.280373    5.410903   50.112820
H   23.133911   38.622105   78.832977
H   81.046272   92.325745    7.793954
H   67.781906   11.989937   83.426239
H   40.656223   78.913261   80.966606
H   36.071098   51.082573   85.932091
H   51.381935   37.367928    8.750006
H   85.165703   99.337059   16.934288
H   95.019096   35.151245   52.683781
H   27.229088   65.450516   54.412193
H   74.715782    4.946911   27.355875
H   29.140532   92.370728   89.282082
H    6.636010   83.192337   63.481667
H   32.134354   21.382044   36.539486
H   42.633873   68.737091    7.317889
H   24.766077   21.795547   39.093456
H    4.525786    5.622278   23.665148
H   86.122536   35.460857   54.248734
H   62.205601   50.860985    2.036885
H   83.775200   34.636589   20.021992
H   18.244112   22.037134    7.651583
H   52.878319   92.312752    1.099794
H    3.340053   74.208679   95.431938
H   49.590927   85.287720   84.538765
H   61.760796   10.083961   63.813873
H   49.433998   99.957581   11.625415
H   96.408424   93.160103   98.423035
H   14.813315   14.525702   89.216232
H   38.579342   48.259968   25.343254
H   35.268333   73.932724   62.188969
H   82.183144   55.296932   65.458206
H   45.063362   24.630161   73.363945
H   99.649261   17.246265   60.895500
H   42.651436    3.602562   36.844738
H   97.712616   51.773369   98.947258
H   63.989861   98.256096   78.525414
H   63.549252   74.171753   17.190290
H   84.648598   51.207016   54.370926
H   65.979332   90.958153   38.651134
H   97.784004   36.846279   75.045418
H   88.684036   22.101768   73.861351
H   66.047554   69.760895   19.920498
H   65.118340   90.336044   19.514606
H   91.027107    3.612536    0.588847
H   79.737823   24.079006   55.023968
H   25.767216   93.558868   36.565689
H   50.852097    1.072418   77.317223
H   69.607925   87.665352   76.844398
H   94.903160   50.732487   76.372566
H   57.604980   50.375015   71.447914
H   43.681953   88.371361   83.453827
H   72.004745   50.364624   28.864746
H   37.350845   54.136742   56.317509
H   41.118233   64.712196   84.813080
H   37.917915   10.890022   85.283119
H   60.607967   55.439804   63.194767
H   61.768684   69.418320    9.156166
H   54.948540   94.885948   44.188694
H   30.856422   57.338005   66.346458
H   76.734100   46.755547   93.649902
H   23.232872   93.391228   73.830551
H   60.993500   68.646622   48.082905
H   51.972488   95.156059   34.614426
H   96.244476   15.685390   88.299820
H   21.329575   11.058725   65.277107
H   30.742970   65.287979   68.568474
H   76.326439   44.600071   67.352081
H   63.833233   73.839371   85.871017
H   52.187973   29.728622   19.845013
H   92.609886    0.106582   86.583748
H   58.836353   39.317352   94.819443
H   58.199417   66.858727   71.929680
H   23.320795   20.817562   31.801483
H   83.814812   15.734821   37.052425
H   27.131948   32.870518   52.716400
H   54.817833   36.746872   14.069250
H   19.356659   50.693752   59.940311
H   67.460991   90.579659   56.801350
H   24.009594   50.587654   65.876480
H   99.942955   26.765333   35.836853
H   46.187370    7.199658   85.538605
H   71.112061   10.771300   35.939819
H   31.239069   49.401176   58.784714
H   46.019806   58.891285   78.268753
H   65.906357   64.205009   84.262100
H   51.359253   91.786789   78.918800
H   14.245076   49.994347   23.701204
H   30.979816   66.416504    4.978942
H    5.558745    9.612846   70.404129
H   64.553719   11.336770   64.082230
H   65.750603   59.089134   92.479118
H   73.530731    0.670290   31.675076
H   27.941198   30.633389   85.387039
H   45.744213   89.711823   14.625565
H   60.888779   26.019741   93.083107
H   91.109512   69.597198   76.617050
H    8.304176   39.869034   86.116310
H   46.394470   97.124947    8.837240
H   69.666779   85.523384   40.642830
H   94.107582   63.099857   71.480667
H   57.469345   55.923336   71.161026
H   68.457184   16.731682   76.216499
H   44.111473   96.669189   19.121885
H   13.696151   27.801460   67.702766
H   27.556444   80.771973   42.019398
H   70.069656   34.959499   20.403168
H   76.382828   11.443489   23.647762
H   12.332831   97.338951   18.047834
H   16.354589   88.820366   34.783424
H    6.152492   12.820665   58.696510
H    3.502026   20.356647   91.746964
