100
TIME:    7.399, STEP:  7399
H   16.958200   43.496956   92.372025
H   96.134995    5.803837   44.636219
H    6.952939    6.218009   36.487759
H   82.718506   27.812325   34.598080
H   28.897558   65.819817   65.087936
H   13.278247   93.192207   11.493549
H   65.186829   60.954868   69.064590
H   38.339485   28.709522   28.842102
H   71.746330   74.909668   34.345913
H   72.666695   22.623674   97.418526
H   12.018066   63.957401   27.040705
H   73.443146   94.564438   66.260155
H   71.940025   14.134245   89.814400
H   88.727303   82.270088   20.306934
H   70.474251    9.117668   95.085236
H    4.024951   64.585388   18.859259
H   29.123634   71.356186   46.948513
H   59.291988   34.803543   43.038834
H   60.503529   88.749878   53.168667
H   93.176529   48.685474   20.090891
H   25.209564   19.623215   56.419437
H   71.729675   53.906265   89.185104
H   86.954887   34.446632   20.656263
H   31.583818   25.341768   57.560555
H   64.953560   99.381409   91.183205
H   12.720409    7.979893   94.603539
H   24.054518   34.908981   46.777180
H    8.236032    1.800016   11.343286
H   72.054909   20.387167    7.417928
H   84.704071    7.714350   71.587944
H    7.251710   85.538193   23.993675
H   32.934536   48.083332   14.301537
H   91.532356   27.135942   64.357307
H   90.726707   95.648598   60.043015
H   96.814842   99.461937   75.213593
H   15.820229   64.950241   96.164528
H   89.459396   33.568970   91.477692
H   58.176392   23.546360   44.567673
H   32.758114   20.204878   27.293980
H   66.289421   19.513468   20.172045
H   29.581861   10.062024   16.661711
H   76.666481   70.618332   57.690815
H   74.963043    7.872297   35.911053
H    6.893379   36.834435    4.170916
H   14.847725   39.964870   89.262154
H   82.617058    4.040775   13.220507
H   99.539352   27.221352   96.486824
H   56.639217   71.577286   26.385708
H   81.309883   19.665195   49.325912
H   81.083252   43.350948   66.195351
H   42.993542   55.317963   31.422161
H   64.720001   77.166931   88.338379
H   62.351620   64.910645   73.147346
H    5.350800   86.481934   58.313553
H   51.675735    7.017463   63.282940
H    2.811205    4.750693   40.747375
H   65.314896   76.051323   59.693932
H   75.111008   78.142998   22.974234
H   73.817924   51.401875   43.464409
H   70.760109   96.499100   53.165428
H   26.435465   34.484108   37.511490
H   36.312965   59.073227   60.574570
H   76.379387    2.388167   26.098816
H   51.116482   82.068558   26.256130
H   26.001057   69.899384   84.605385
H   46.815094   74.447166   83.670471
H   93.932465    4.166104   24.286299
H   69.266182   40.694572   19.917587
H   25.666893   18.141373   96.179535
H   80.294609   20.277712   86.150436
H   87.080238   91.973862   73.395302
H   63.976696    5.923568   98.390572
H   24.562796   52.326794   72.040833
H   67.324440   81.136292   63.530060
H   18.888475   39.209820   62.298847
H    0.571525   81.779808   98.071144
H   38.770222   85.398262   21.963499
H   79.598801   66.919090   23.058268
H   16.323034   31.785526    0.229161
H   36.670609    5.960536   83.490791
H   55.662560    5.828408   22.211014
H   96.512093   92.454285   68.002983
H   85.878426   30.855505   34.586632
H   59.187717   45.307858   87.632988
H   92.059937   86.069237   30.502264
H   81.003647   80.832596   55.592255
H   61.317265   65.384895   76.356194
H   75.025291   12.998178   18.861794
H    9.233125   82.208015   67.676521
H   12.167426    4.859440   88.713425
H   26.820301   72.955254   89.715134
H   25.749971   51.954681   74.504890
H   59.743641   49.526981   91.180611
H   62.350143   62.061607   25.701975
H   28.668812   86.972122   86.108032
H    5.048671    3.554098   85.280815
H   75.304619   92.293320   11.665374
H   23.995539   52.560886   30.347281
H   56.241722   68.752876   25.293354
H   98.792549   88.763748   84.971176
