100
TIME:    2.113, STEP:  2113
H   74.428864   28.248367   97.211502
H   42.493340   19.307871   11.287426
H   16.075392   25.921371   98.531609
H   81.831268   45.595116   24.342052
H   76.245102   42.123783    8.413101
H   95.251350   98.918922   88.003227
H   42.227802    4.016585   55.692207
H   53.808662   71.402557   14.184807
H    1.686382   83.136993   67.082497
H   17.097593   46.722908   90.431938
H    3.708910   51.263584   36.214771
H   75.194229   29.604250   42.523003
H    8.855004   33.868080   15.114199
H   50.458015   98.562996   18.039913
H    6.201484   81.285706   49.203171
H   16.565552   26.918526   57.644302
H   54.185410   21.733070   65.736526
H   46.298454   91.945305   26.292141
H   78.174019   66.998230   74.682632
H   35.590279   60.939686   60.195503
H   38.888214   45.862011   99.894302
H   64.955719   46.889023   39.336792
H   57.532433   77.437325   71.894653
H   22.720955   62.023838   50.145073
H   54.010612   18.594193   52.152016
H   36.970318   64.645538   91.120720
H   79.872887   54.643681   41.896511
H   54.252457   55.067410   36.616016
H   57.115997   40.799599   57.289421
H   82.015495   38.543411   51.365810
H   99.221169   11.529108   42.209591
H   99.173431   94.133644    3.653081
H   19.194172   13.885262   88.152679
H   67.380470   80.078964   82.734131
H   28.249325   99.193390   53.394310
H   56.271832   50.471943   13.376065
H   82.462952   27.154135   74.961487
H   76.656044   20.280186   71.549095
H   55.884178   35.376770   39.546501
H   64.171440   14.370990    4.280195
H   90.841408   28.685862   92.125900
H   41.716797    6.689280    2.072402
H   29.441343   76.170975   54.096802
H   44.429497   48.185181   87.331833
H   73.367744   48.521412   36.926018
H   50.826939    3.219013   91.750130
H   58.236858   39.750336   45.738464
H   56.352261   17.138670   99.318428
H   26.795401   57.449787   60.187698
H   70.203911   62.910610   35.878399
H   43.383411   65.647011   75.695984
H    7.821085   67.669357   35.347637
H   52.711571   34.260620   80.150536
H   27.761112   72.733360   25.056845
H   72.544998   43.742054   18.335951
H   96.210068   10.311287   20.695297
H   30.206820   28.577507   56.951347
H   68.718597   77.340698   59.129837
H   56.923683   28.048559   49.267654
H   19.583065   90.199722    3.511656
H   92.989975   80.307076   49.648952
H   23.917526    8.276264   99.746506
H   17.555916   63.062584   88.598068
H   88.135376   53.288689   69.775230
H   16.189938   92.082062   92.340683
H   71.540352   37.229469   71.122398
H   18.038656   21.415239   69.077896
H   34.406532   38.382446   67.216217
H   62.215691   97.959633   27.708633
H   73.191467   54.421959   97.283752
H   54.935417   51.631310   36.805164
H   99.741211   81.398636   11.325243
H   69.220047   13.789585    7.567364
H   83.689110   15.664351   77.626686
H   64.045921   31.650248   61.577740
H   75.612587   42.996391   53.750668
H   58.802483   43.406372   28.418863
H   31.252911   12.556341   31.133060
H   62.836655   47.312183   41.252525
H   95.899757   93.875320   38.884285
H   52.231876   51.141613    6.278128
H   99.863159   58.027054   10.089529
H   51.492435   42.525238   31.152592
H   95.524849   92.973732   70.430664
H   49.444199   16.714157   42.920731
H    2.657513   86.668907   88.516289
H    8.277227   49.720612   24.299421
H   89.970291   36.122543   73.774269
H   99.532173   76.523872   10.912613
H   79.521225   22.340279   99.753654
H   10.495331   87.527405   78.084427
H   34.628658   54.422176   73.783028
H   20.857983   90.945602   82.382431
H   51.457882   41.401920   69.286217
H   20.059029   60.460907   64.641136
H   68.446716   12.291574   58.309769
H   94.882675   88.941368   15.668980
H   14.623353   34.228607   22.227184
H    8.054907   45.958607   68.053635
H   70.465775   24.428711   94.173370
