100
TIME:    7.478, STEP:  7478
H   11.615849   36.252235   92.299698
H   93.953140   10.084861   49.617718
H    8.310930   11.901378   35.560169
H   82.731766   24.557323   30.267643
H   28.189661   72.152016   62.945862
H   12.053063   93.106621   19.317184
H   61.046558   66.289307   75.242493
H   32.130241   35.543789   21.588341
H   69.804359   67.314163   29.373013
H   70.508949   23.757998    0.511737
H    4.669678   67.136154   19.431036
H   70.428329   98.524323   60.636757
H   66.902473    9.352699   81.963341
H   84.815636   82.026588   26.319088
H   71.433784    2.061007   91.285675
H    0.848342   57.675781   12.301426
H   22.770943   76.581787   54.140194
H   60.981419   30.959381   40.300667
H   61.733685   92.063644   57.330463
H   91.047714   47.008099   25.469584
H   20.521591   11.758293   54.275555
H   79.303482   54.011139   82.457520
H   85.900124   33.804131   18.395754
H   24.243567   26.286837   51.693054
H   62.127998   93.116714   91.766640
H   12.347927    5.651276   87.169563
H   17.242250   31.624784   48.344860
H    1.570376    5.487449   13.954730
H   73.772667   27.554438    3.683688
H   87.733353    5.758968   77.868309
H   10.361003   92.622589   17.743446
H   37.922665   45.900875    6.988116
H   97.096687   21.356138   71.474251
H   94.064583   88.408699   56.714783
H   94.848763   93.480522   80.019699
H   22.687347   71.137787   95.916206
H   97.036819   30.675764   97.702606
H   54.911446   22.100430   50.142250
H   29.423252   18.483805   19.638504
H   58.848633   12.117686   26.387617
H   24.182978   12.772466   18.522917
H   70.008812   70.928131   61.723629
H   75.642914    8.346188   41.617023
H    1.849105   38.160423   11.894988
H    7.995075   36.848194   96.022285
H   81.597252    5.547354   13.541456
H    0.156635   31.517857   97.245049
H   56.644039   72.390961   31.273785
H   83.619514   13.122646   46.174278
H   82.741943   44.553379   60.671638
H   42.988117   47.691116   32.254913
H   68.559341   69.836624   83.152557
H   63.990421   65.368713   68.559425
H    3.521538   85.193314   61.799698
H   45.385727   13.940782   63.954975
H    2.909599    4.667593   38.058029
H   70.323517   73.771828   67.207466
H   69.228439   70.682503   20.939142
H   80.047661   54.740353   37.399818
H   65.546562    2.571154   50.918480
H   31.419073   30.810417   31.352272
H   33.509102   58.337906   56.999825
H   81.742409   96.997345   20.681549
H   56.541584   82.498901   24.111042
H   29.136719   63.590046   91.962212
H   41.961975   70.519829   88.341568
H   87.594238    6.897264   28.100626
H   63.809135   45.212578   23.694244
H   29.604477   12.464935   91.225159
H   81.899055   24.245432   85.982880
H   84.571709   86.598785   72.447823
H   57.471516    3.300370    4.181233
H   19.411631   48.419346   70.015686
H   65.584984   76.136108   58.836060
H   22.693762   39.326145   68.288696
H    2.439250   86.842674   92.755135
H   45.945026   78.560982   23.364527
H   83.310364   61.753498   27.421373
H   20.111143   31.553478    1.110811
H   32.796310    1.656876   76.684853
H   57.209145    6.645700   26.932739
H    2.440314   92.966599   61.393772
H   90.874992   32.176670   42.110413
H   64.622536   52.067989   80.417198
H   88.213364   81.126915   22.844378
H   79.185837   83.734100   61.078232
H   66.593498   59.640953   80.123207
H   76.295830    6.676527   18.042694
H   10.872830   77.809349   67.030403
H    5.182630    1.608959   91.537781
H   30.053303   77.221321   91.383469
H   31.595171   57.896317   76.010490
H   64.807709   51.897488   97.289803
H   69.985298   66.854454   31.028830
H   27.302742   79.896164   87.923431
H   11.573775    0.434598   81.200386
H   69.033897   96.826996    7.121903
H   23.843050   56.469540   28.761217
H   52.478325   69.094017   18.676067
H    3.699547   86.736191   77.361206
