200
TIME:    0.782, STEP:   782
H   26.125601   60.676212   24.607441
H   32.794983   40.790741   11.900582
H    6.777843   92.861404   72.044609
H   36.112320   83.308784   30.326530
H    9.455590   97.466156   45.865845
H   71.986389   38.104263   49.506989
H   11.211837   54.919563   60.142193
H   15.034543   12.290168    5.833874
H    9.439245   79.380692   34.497334
H   91.781784   67.306557   74.693825
H   31.085131    6.172244   10.089378
H   33.019043   56.489601   38.567535
H   24.476894    4.996207   39.077751
H   78.786186   55.493664   68.383293
H   93.454239   76.116936   41.645012
H   13.502199    3.634588   42.630920
H    9.703866   33.102993   89.116676
H   23.692249    9.223048   33.871037
H   83.058731   10.079838   50.462570
H   91.780602   72.261436   16.460117
H   64.589638    3.814310    1.009304
H   77.962715   69.531380   49.688141
H   78.774818   58.600677   36.131218
H   20.088390   93.000664   89.886543
H   26.804535   34.502396   26.070339
H   18.212431   86.390198   89.055565
H    9.391950   69.672157   70.874008
H    6.949368   92.488091    2.157427
H   33.896587   40.055367   35.164650
H   68.557037   35.284061   79.877213
H   12.653868   74.093239   16.857468
H   22.069965   76.209457    6.947562
H   14.027336   20.647955   79.799500
H   78.488350   64.169243   47.763885
H   21.978060   67.405136   30.095884
H   15.356670   37.564110   85.691582
H    1.820762   62.730713   90.023903
H    6.105605   58.775478   90.798447
H   33.010727   26.992641   56.479340
H   84.884888   37.459652   42.524506
H   80.665581   79.904572   19.514496
H   40.316910   31.741453   23.759418
H   66.942947   75.331047   70.453972
H   36.073807   89.558144   38.132473
H   47.296013   92.831543   63.923088
H   33.432541   99.733025   48.582508
H   90.187927   99.658173    8.062140
H   76.920616   65.542336   28.162918
H    8.041450    8.184214   61.557102
H   42.721561   20.247435   82.782791
H   65.314896   63.635933    6.389002
H    0.419424   45.026836   75.194527
H   66.795616   78.922310   15.011032
H   14.339878   93.621475   89.729454
H   54.257187   64.331024   73.244530
H   98.357841   58.996941   96.396210
H    3.883696   18.796486   43.840595
H   73.330185   71.179138   95.520409
H   16.744421   84.947617   20.235203
H   30.567638   92.945717   56.974808
H   48.664154    4.801840   26.400650
H   99.677910   17.708841   53.221336
H   86.379272   36.433975   66.599365
H   37.258598   65.925606   15.768875
H   80.061096   84.159119   40.093250
H   17.478212   37.617973   42.605667
H   65.929543   11.729188   97.033058
H   94.306236   92.682198   98.002220
H   35.801300   13.177600   55.119621
H   42.117008   51.076694   50.953648
H   58.227394   85.966476   87.779114
H   16.907707    9.575503   40.970844
H   94.695938   35.033306   81.346664
H   25.523172   97.051216   76.351845
H   85.744705    9.645297   42.127899
H   67.013451   99.941612   59.335732
H   93.136719   50.127571   64.479042
H    6.480435   15.839464   29.433876
H   15.652647   53.838951   22.929079
H   60.108219   87.644165   68.557648
H   66.371834   20.941698   93.086914
H   50.469059   58.842648   71.101677
H    8.885110   19.611586   74.421486
H    6.999494   79.582771   11.516383
H   19.607491    5.055288   42.422249
H   39.936684   66.810608   16.500114
H   60.147049    3.913517    3.013919
H   70.824196   98.371826   31.885246
H   82.275528   73.376404   79.122681
H   20.729416   10.341713   48.902645
H   18.522953   39.571697   78.343704
H   80.280052   93.290863   10.194157
H   73.007812   10.749340   80.293381
H   35.723629   74.961311   83.987007
H   38.858192   49.594612   90.513466
H   46.826576   39.827301    3.578080
H   86.657860   95.531975   21.671761
H   91.995216   36.860344   53.725269
H   24.736565   64.348602   54.802017
H   76.628395    6.734216   27.382730
H   34.048367   95.412109   94.461830
H   10.726119   84.856537   62.874901
H   34.414551   17.361906   38.076542
H   47.919365   68.940186   11.686309
H   24.620260   20.349968   42.659779
H    8.880819    0.236703   18.514982
H   91.333427   36.826710   53.736801
H   61.557293   55.084427   97.783516
H   86.570686   33.248077   25.341053
H   21.777704   20.503435    8.189951
H   54.325577   91.356865    1.177187
H    7.756628   76.974792   96.684914
H   47.680412   86.564194   82.146111
H   61.388176    7.712504   60.977684
H   45.763191    4.537992    7.768403
H   91.919365   89.942482    3.385515
H   10.290582   16.074617   90.498581
H   38.021252   53.674282   23.144463
H   39.445618   78.062592   56.752834
H   85.086052   57.492367   69.562057
H   46.211433   25.361134   69.759438
H   94.903397   14.640446   64.131149
H   45.303413   98.963211   40.108097
H   96.092056   47.815125   94.130058
H   60.698387   95.532784   74.887337
H   67.579247   77.181244   15.066354
H   81.914375   51.720627   50.122726
H   63.573250   91.820885   39.580166
H   99.137688   32.864536   72.538628
H   94.015686   21.580395   75.735359
H   70.487938   65.833282   24.124218
H   60.896156   91.427048   22.108677
H   90.667915    8.964117    1.407372
H   74.344070   26.899250   56.377651
H   31.201252   91.569885   31.510986
H   47.922333    0.931244   75.696663
H   69.790039   87.945656   82.320396
H   95.841423   47.297924   74.634514
H   60.480194   51.913330   71.421898
H   43.741539   83.095940   80.397339
H   77.450531   47.129799   32.418060
H   32.286911   57.478989   58.881786
H   37.582123   66.736427   81.102829
H   32.877480    6.908175   87.105934
H   65.778488   51.791656   66.791718
H   65.799294   71.313309    3.887837
H   57.550163   94.404228   43.401073
H   27.852806   53.243385   65.715355
H   79.674774   42.162842   92.556381
H   26.739399   94.592171   69.714111
H   57.116661   70.514755   47.252483
H   56.602959   92.112160   31.167274
H    1.354589   11.572308   84.438507
H   24.237309   13.583664   62.558605
H   35.104885   68.193405   70.558296
H   79.591896   44.872822   70.736710
H   64.984665   77.138397   87.173508
H   53.751884   27.963715   22.422089
H   87.575325   99.692032   82.504234
H   57.603100   34.829132   99.040787
H   59.279930   62.389809   69.004951
H   18.155943   20.247513   30.848534
H   88.549767   10.938812   37.006687
H   31.169710   36.101986   48.010399
H   53.764595   40.479362   15.150078
H   21.251858   47.193729   59.339001
H   65.566841   88.800484   57.967464
H   24.105686   55.592422   70.425125
H    1.437926   26.407610   35.577110
H   51.207245    6.369552   84.299896
H   69.010620   12.079455   35.930588
H   27.438810   45.315369   59.122505
H   48.145164   54.164303   75.173660
H   64.551834   61.574402   86.814209
H   46.246643   90.959305   73.746605
H   17.639824   50.590347   23.811821
H   29.849789   69.853165    9.580040
H    6.533672    9.717751   71.810684
H   61.740269    8.779521   62.796078
H   60.518265   60.269096   94.030861
H   71.522446    4.612410   29.117722
H   30.159922   30.767666   89.402771
H   40.679020   89.595169   16.805054
H   63.284370   26.223255   97.129890
H   92.532013   64.826157   76.163864
H   10.606928   40.797226   86.666847
H   50.224731   95.240868   11.274584
H   64.382126   90.182808   44.491974
H   90.921852   63.590389   72.737839
H   59.469658   55.324963   72.550797
H   73.711624   13.092346   75.430977
H   43.209717   99.658539   17.720785
H   16.139481   30.418400   70.222984
H   25.634809   85.162003   44.236233
H   66.294785   30.046291   20.043346
H   76.651382   11.713408   22.140709
H   13.064013    0.338403   21.760603
H   13.157646   86.634163   31.681198
H    4.685616   13.128454   53.776924
H    2.354715   16.629822   90.218719
