100
TIME:    2.784, STEP:  2784
H   29.051346   66.714348   96.597183
H   23.828285   55.690010   53.613850
H   27.609228   74.196274   90.658089
H   81.943893   17.949465   87.562683
H   70.235016   95.907394   90.219620
H   84.848885   98.191978   54.455311
H    7.061661   49.327438    8.165366
H    1.069386   29.453379   52.577030
H   85.191902   18.623276   24.843761
H   98.762566   56.357475   16.707399
H   41.294128   78.262894   71.579803
H   49.584488   63.238205   94.761345
H   66.170769   93.271362   48.421661
H   17.233604   96.494789   69.104652
H   14.364105   21.349119   16.947508
H   89.585297   68.230255    1.944747
H    0.234323   66.109283   26.826853
H   60.637680   59.314735    3.027374
H   88.627678   95.144272   10.035341
H   17.513947   46.692608    5.880273
H   99.070221   79.061615   81.679749
H   29.285141   47.779785   82.194977
H   48.573616   71.980125   52.697189
H   60.377747   70.071411    0.308784
H   30.011436   65.375488   57.102402
H   33.893604   44.654415   28.227468
H   22.011017   26.748968   55.211872
H   97.636559   86.387428   58.798046
H   71.706070    1.678555   25.570612
H    7.744786   21.936325    4.708972
H   25.622427   71.701508   89.117729
H   41.540565   75.591454   41.535225
H   66.459930   64.791573   48.601662
H   95.731285   18.585648   54.465225
H   11.568349   48.471130   94.255424
H   14.612271    3.181989   11.069810
H   46.820557    2.578840   27.833494
H   48.922333    7.998929   18.901127
H   27.558960   20.757952   74.522049
H    0.972136   51.554993   57.074436
H   44.984631   51.707829    7.936035
H   81.411095   36.805893   33.595230
H   35.221058   80.194763    2.565342
H    1.582479   59.432335   52.938202
H   15.164591   22.049389   94.344948
H   42.170162   16.017323   94.473610
H   63.484165   76.240875   52.183693
H   56.388096   24.047197   40.836052
H   46.407532    1.879470   33.418755
H   84.271812   73.119087   88.948273
H   43.332218    0.865874   82.770889
H   40.429279    5.404392   91.296959
H   66.630043   38.151306   41.179245
H   12.223965   61.787209   54.666412
H   19.125671    2.564984   24.028639
H   97.049637    9.606100   97.852875
H   72.744331    9.215775   20.769142
H   18.753998   13.973022   41.847000
H    9.845642   56.399731   97.753716
H   75.302811   41.775928   84.427010
H   35.318001   49.102123   97.333939
H    0.104989    2.029409   69.388916
H   63.071011   17.305246   42.565109
H   34.211403   56.938766   51.557178
H   42.824261   38.490543   54.830330
H   30.319557    3.872034   10.796810
H   64.203011   44.612064    1.473076
H   88.055733   76.756897   99.293900
H   95.655388   49.745842   85.624886
H   86.788391   88.169991   95.870819
H   33.628792    5.976003   28.753502
H   44.413376   59.129578   60.454315
H   25.469923   80.598015   90.364250
H   68.924980   73.203384   37.747154
H   96.400047   32.606625   12.443874
H   91.472252   86.001213    8.602234
H   19.723764   85.248428   40.286228
H   62.777706   68.682915   68.191269
H   95.016541   45.341244   48.742096
H   62.992744   57.332653   81.077164
H   65.362411   58.083416   46.381580
H   50.211288   62.409195   53.981300
H   93.943375   53.726318   95.062225
H   41.684956   50.392059    9.142120
H   16.771481   74.744354   77.874901
H   87.216858   11.314548   35.112728
H   53.091789    0.933436   56.295197
H    0.771883   82.400726   66.791512
H   13.458359   39.163048    5.423118
H   20.195232   94.732742   23.739582
H   37.955383   23.760193   92.254715
H   84.278885    4.879594   86.571098
H   63.910831   11.052248   34.293556
H   16.311489   82.103386   14.529874
H    8.456081    0.355005   80.060539
H   23.868607   85.794563   23.651947
H   41.621231   27.448421   77.079094
H   17.086462   39.941772   11.489941
H   76.090172   48.851025   11.848213
H   12.137100    7.193883   29.546930
