100
TIME:    6.366, STEP:  6366
H   86.815994   38.227470   93.317764
H   24.661606   49.829098   79.502724
H   89.191498   31.898937   48.616871
H   82.545120   70.371002   91.220459
H   38.151367   83.020401   93.097595
H   29.300320   94.311333    9.192226
H   19.328587   91.200020   88.282570
H   19.531250   39.341534   23.688595
H   97.139442   74.228409   99.369118
H    0.881382    7.790246   56.972385
H    8.105209   22.392141   26.544491
H   12.867271   42.785191   39.789787
H   37.839157   76.625694   92.463799
H   39.874184   85.454079   41.695950
H   57.927437    1.390334   44.761150
H   45.561249   54.935402    4.607088
H   12.191323    3.033152   52.910439
H   37.201084   85.069611   78.846230
H   44.418072   45.415855   98.748932
H   21.006859   70.621132   49.759483
H   86.509262   22.461720   84.458488
H   72.694962   52.534943   77.154587
H    0.746999   42.847954   50.212143
H   27.564442   12.984102   34.278667
H    1.900345   81.304398   83.554237
H   17.526503   38.464874   91.787331
H   13.131222   77.850906   26.278273
H   95.397568   53.583061   77.200119
H   49.593590   26.665123   56.247650
H   45.093342   33.281487   89.467667
H   66.599648   92.907341    5.721303
H   67.710388   76.624512    9.931511
H   18.769260    2.715944   71.296509
H   47.080818   90.316879    3.562532
H   22.524139   77.674538   12.362824
H   26.022932   84.040962   99.411568
H   90.381294   71.398560   10.081174
H    0.875348   42.453274   71.671608
H   76.362366   42.711418   27.399328
H   63.586399   16.219460   38.898060
H    0.181188   74.614601   92.325905
H   63.722168   66.567413    4.955979
H   66.073090    1.675560   61.295837
H   72.852158   19.495871    3.169960
H    4.452793   80.721603    0.865623
H   95.951988   84.338547    9.023787
H   91.469040   71.042618   86.572319
H   56.579395   60.937714   62.469929
H   51.112625    5.218580   90.531448
H   59.395962   27.626928   38.421120
H   43.064472   55.047424   20.534332
H   14.509851   73.022781   56.147926
H   40.922733   58.920959   33.141048
H   29.270134    3.333047   12.730563
H   33.925011   16.490490   54.495441
H    1.524605    5.837309   75.913132
H   99.829643    5.858209   61.447029
H   52.029938   75.697273   49.582382
H   92.350159    7.748477   22.765007
H   38.928146   17.099590   82.546410
H   61.272877   82.522842   18.053013
H   72.976143   68.688248    7.311502
H    6.247719   72.878578   96.934723
H   80.181992   76.441406   54.305195
H   85.000549   52.402988   88.406578
H   10.273621   25.800224   22.591444
H   76.812241   68.449249   74.412491
H   40.622688   81.615334   70.534210
H   74.183693   92.366180   60.969662
H   59.356445   68.334892   88.328156
H   19.883270   62.258530   85.784492
H   49.060848   40.249939   22.710148
H   91.915665    3.419296   98.521545
H   90.069481   46.514645   24.907095
H   69.099968   37.717052   83.983780
H   76.155525   15.573238   67.577209
H   44.951748   74.807762    3.643498
H   31.066586   34.462914   66.011665
H   66.784111   34.819775   88.706779
H   87.330734   62.233559   72.484612
H   35.445290   95.140854   60.469852
H   18.996874   85.755295   54.424252
H   20.538330   13.580268   36.209244
H   88.120171   56.911644   81.981194
H   42.358238   50.689056   30.639984
H    4.774628   42.888283   83.857483
H   92.325462   40.492729   27.098913
H   58.411797   95.659790   29.572296
H   87.795029   39.723076   76.125130
H    3.498274   47.362560   51.784897
H   84.545586   17.177940   67.900070
H   49.318432   74.263474   54.821419
H   93.526459   18.530361   11.297130
H   62.515568   99.391060   56.048584
H   46.528267   79.502365   62.369968
H   19.727127   44.344757   38.636887
H   57.299095   33.011200   71.074799
H   25.989473    1.449286   51.082939
H    5.451604   64.292137   11.817368
H   34.627712   15.273426   84.483574
