100
TIME:    3.805, STEP:  3805
H   60.005524   73.083466   95.662430
H   95.426521   11.045073   18.017897
H   45.159225   47.650642   78.677666
H   82.115265   75.883904   31.597628
H   61.090012   77.745033   62.535339
H   69.020393   97.085854   55.568558
H   53.549198   18.268879   88.008888
H   20.820801   17.783253   58.832371
H   60.093773   20.458282   60.577061
H   70.860176   71.017525   56.691475
H   46.323196   19.344700   73.231987
H   10.613060   14.415415   22.084799
H    1.227014   31.499741   46.942650
H   66.679634   93.347786   46.802906
H   26.784641   30.149082   67.871101
H   48.534042   78.929802   17.193022
H   18.131813   33.641781   19.772512
H   82.449791    9.663501   67.631042
H    4.532702   37.978287   63.822613
H   90.006004   25.012861   75.394737
H   38.482620   77.417908   53.967133
H   27.169403   49.135178   95.247406
H   34.941795   63.676399   23.485008
H   65.515770   82.316681   24.480610
H   93.496124   84.403839   64.640602
H   29.209726   14.233819   32.528282
H   33.969173   84.308121   75.468239
H   11.487374   34.044235   92.543846
H   93.906464   94.311630   77.308113
H   46.893372   96.665611   85.875458
H   65.808067   63.256252    8.339455
H    6.007274   47.382072   47.016136
H   38.376476   90.090767   40.581406
H   38.872330   25.017097   11.452850
H   86.188660   71.291252   56.425049
H    3.391382   83.388397    7.552684
H   44.747826   65.188461    8.284417
H    6.725577   89.316490   90.950157
H   84.462433   98.514458   75.579597
H    4.805328   55.972580   37.403667
H   75.207123   86.742767   31.989851
H   89.649399   82.629013   81.563660
H   44.015530   86.317398   76.312218
H   36.383499   76.540405   52.766136
H   26.600428   81.765045   81.714661
H   28.997929   35.491352   98.617683
H   71.461227   31.767342   61.990814
H   56.442623   34.560226    4.009773
H   76.252731   17.319908   92.690613
H    5.679721   88.651573   17.538181
H   43.254322    2.294930   93.536133
H   90.049103   10.663345   24.270519
H   87.802208   44.071411   81.881386
H   88.578728   45.125229   99.721527
H   37.833908   92.048035   32.709591
H   98.327133    8.531713   63.095627
H   37.471973   79.754921   17.874746
H   42.727776   17.552258   15.546867
H   90.369408   99.538605   19.370834
H    7.928920   20.252691   55.387337
H   99.722511    1.623115   17.728634
H   63.867729   92.525681   23.189636
H   32.381390   47.637016   72.550194
H    4.321495   62.492760   23.833950
H   83.349892   56.945774   49.912388
H   67.598000   53.114967   71.165100
H   82.285995   79.910309   50.768047
H   17.528587   35.149857   48.103603
H   46.543762   76.383301   21.589115
H    7.476103   39.523140   93.720886
H    1.205616   36.508049   16.504337
H   60.226532   25.244766   35.205822
H   58.898499   30.095402   64.191154
H   46.449627    8.591072   77.074089
H   45.625233   34.063282   89.842445
H   15.608493   51.438286   39.901234
H   12.423933   96.754196   58.342548
H   10.746150    1.920381   24.575418
H   43.975563   42.342243   60.138298
H   12.921000    1.724717   93.117149
H   85.334976   68.646133    7.405131
H   26.818077   69.077103   68.605713
H   58.541431   70.769989   92.307434
H   11.928537   37.761421   15.889424
H   67.057373   10.878792   78.900391
H   63.723293   48.819382    6.013917
H   21.282080   26.698433    4.980407
H   17.204069    0.656922   56.172226
H   34.649277   82.316139   97.070808
H   29.925158   52.729065   60.234795
H   79.738861   78.889961   13.816445
H   59.827469   81.659721    6.028726
H   29.361416   41.686455   13.251017
H   14.995003   44.034416   83.369850
H   90.803368    8.900242    3.522553
H    8.199035   45.475533   70.915688
H   60.579285   86.041878   18.360094
H   20.833265   48.634979   95.151421
H   27.451836   53.252155   26.328148
H   75.553429   80.990211   31.191950
