100
TIME:    5.282, STEP:  5282
H   60.122231   37.634956   94.310196
H   54.598946   91.087097   11.152129
H   70.550323   53.912018   61.344807
H   82.363174   15.031807   50.639381
H   47.860657   96.133102   22.488018
H   46.113766   95.485710    1.839936
H   76.139717   18.002987    3.512309
H    4.731514   45.561550   23.217899
H   23.786293   78.450577   67.605095
H   30.496206   92.225060   14.526106
H    8.936249   78.775375   30.960846
H   54.243401   88.450157   16.950521
H    7.011612   42.177834    0.175710
H   93.548195   88.795265   59.203705
H   44.748451   98.218277   96.870697
H   89.145538   49.746048   94.588593
H   99.359993   31.334003   54.229645
H   14.019713   37.813915   16.424517
H   27.537369   99.937866   41.637730
H   50.209160   93.645546   75.955757
H   50.835350   30.377579   13.882118
H   68.770828   51.095917   69.467194
H   15.221606   51.664055   81.225632
H   28.283703    0.016327   14.785514
H   40.668854   67.271683   75.548622
H   22.467985   70.510468   93.722626
H    6.605715   22.909996    4.768241
H   86.861977    2.985599   41.368111
H   26.023338   28.316107    7.489739
H    3.529217   60.110222    3.292844
H   23.934643   95.703079   91.483910
H   99.266060    6.577813   10.282814
H   42.414402   82.026314   73.641228
H    1.277985   89.659019   49.228447
H   49.475510   59.641403   46.364395
H   31.792433   99.137169    2.820343
H   86.411438   11.096928   24.666119
H   45.676548   62.293636   95.178261
H   22.116879   66.331291   32.446838
H   65.687126   17.699894   53.611866
H   74.264542   37.420868   66.787331
H   56.904411   48.917542   50.949436
H   56.737797   95.174530   82.998085
H   42.069622    1.300940   97.182419
H   98.481667   23.491600    8.105239
H    9.941803   63.662891    4.619790
H   83.000290   12.090783   76.168327
H   56.521503   49.772858   95.398186
H   19.429245   94.995178   33.772507
H   36.657146   11.126768   14.234779
H   43.141636   59.700546    9.107717
H   61.827675   73.609894   27.308357
H   18.435886   52.635559   96.098351
H   54.370384   21.021660   64.896446
H   20.234360   21.493929   45.274097
H    0.174420    6.977571   12.815063
H   31.107712   37.137016   58.349617
H   32.746475   78.067818   77.502792
H    6.857527   61.946533    5.980579
H   10.462116   33.780338   13.377937
H   92.892883   32.934933    2.570418
H   11.448339   78.777969   56.362083
H   32.654980   46.849167   71.267853
H    5.744574   70.536438   83.733521
H   41.974403   38.979511   87.458427
H   76.864433   79.689262   58.496391
H   63.783783   30.975590   22.077477
H   15.502084   19.620607   18.712744
H   20.155622   70.255501   28.954659
H   37.398895   13.810997   90.610748
H   54.305565   36.013184   98.785347
H   38.442093   76.225586   43.345337
H   62.595123   57.035416   26.317390
H   13.932720   15.121620   89.315453
H   16.838167   36.170513    1.808999
H   50.529900   46.099854   40.517788
H   46.526600   68.738472   84.463203
H   80.138290    5.342883    6.143811
H   14.805011   38.003826   76.615654
H   40.486855   21.282684   65.872223
H   14.232237   83.926376   95.682167
H   37.640869   78.723038   45.100243
H   51.974037   95.453064   32.974735
H   13.543501   64.151291   80.987701
H   95.139061   18.492104   35.721657
H   29.725880    3.069968    8.581340
H   19.927572   19.308502   75.409637
H   40.977341   82.405273   40.813103
H   65.299911    0.079456   84.990852
H   99.338348   91.958908   13.036846
H   40.183891   58.643093   45.007977
H   69.113411   92.736526   34.170570
H   24.039705   86.007027   27.469746
H   57.752274   33.625927   82.956337
H   65.268684   76.600639   37.459934
H   30.193161   87.151642   94.626572
H   43.341759   70.803871   33.416580
H   26.253469   61.210754   71.509865
H   57.090759   59.618923    2.613305
H   67.295013   43.088810   88.908737
