100
TIME:    5.931, STEP:  5931
H   16.233229   78.119286   93.716019
H   36.674599   26.255758   52.074825
H   81.710953    0.604419   53.724483
H   82.472107   88.292450   15.064164
H   42.047623   48.153229    4.892162
H   36.047413   94.782600   66.114006
H   42.126255   61.828510   54.265003
H   53.721390    1.709553   63.630192
H    7.832634   16.052063   26.751211
H   12.764288    1.543866   39.940372
H   48.567856    4.889314   68.444740
H   29.471161   20.980762   70.754066
H   65.597488    2.930592   35.687675
H   61.413109   86.794868    8.591053
H   52.641106   40.246384   65.676392
H   63.051254   92.981972   40.716522
H   47.171425   74.259544   13.310675
H   27.898527    6.236324   93.926796
H   37.644428   27.165850   75.829391
H   32.725494   79.860634   20.142633
H   12.322762   65.768433   96.266731
H   30.991089   51.957474   14.198807
H    6.555387   46.385780   62.657593
H   67.983437    7.780245   66.586792
H   17.457882   15.801392   80.341652
H   19.509478   51.325172   32.693260
H   50.642632   95.931656   17.646109
H   32.101528   33.278725   62.822861
H   40.135048   87.198914   76.810852
H   28.413479   44.047630   54.885910
H   49.478531   53.899181   40.137093
H   40.244114   88.645157   50.201668
H   88.128777   34.541649   32.108276
H   28.701080   30.181877   21.887308
H   33.343597   10.581224   85.884872
H   88.209549   49.970299    0.779293
H   48.658730   87.328735   75.804970
H   18.854206   50.415043   40.975323
H   94.721893   52.189873   69.554375
H    4.559896   56.943645    4.672739
H   29.909328   59.687660   82.077492
H    0.381495   64.861557   82.747093
H   62.328014   99.066391   29.876774
H    0.630337   12.194540   60.636818
H   42.185291   97.886368   63.642071
H    1.566825   76.041580    7.256533
H   88.070602   47.386307   82.397285
H   56.556164   56.457352   35.554569
H   38.398354   41.244041    7.883153
H   50.268757   21.004965   68.841110
H   43.094341   97.043350   15.949420
H   93.368584   13.386635   84.702766
H   31.898952   56.398682   58.406971
H   39.342651   10.431102   93.535789
H   68.559868   78.369843   50.794994
H    0.982811    6.294887   90.721558
H   72.250526   18.410530   20.075035
H   84.421295   16.777819   60.786606
H   58.041122   89.367989   56.158638
H   67.632751   83.664520   94.918846
H   33.833149    2.753824   51.967693
H   88.415138   72.737167   26.994873
H   76.716743    2.561886   26.763977
H   50.311394   74.071793   66.116165
H   67.736221   87.145157   47.897465
H   36.995140   47.425438   96.870338
H   11.713085   53.410847   53.411209
H   70.670982   56.737705   49.738697
H   52.503620   23.622490   88.250458
H   50.545067   46.454788   89.244141
H   33.697517   91.855469   91.001625
H   84.928909   54.686661   90.861862
H   20.279114   24.934990    9.675476
H   99.647499   74.045189   50.753349
H   48.127750   37.096439   51.008316
H   65.873924   87.694389   96.848907
H    5.450915   12.486017   95.940727
H   10.629497   62.908234   41.987244
H   45.925091   36.097507   83.854713
H    8.663429   85.929695    9.960198
H   26.932604   90.640579   34.470478
H   86.350067   82.934189   90.812523
H   93.023232    6.306221   94.781555
H   58.191994   19.687584   21.712154
H   63.538734   77.898094   72.808487
H   14.787273   26.908855   53.649887
H   63.272804   72.120766    6.356464
H   51.415794   30.468676   34.082527
H   78.767929   63.943581   79.682869
H   41.958729   65.260544   36.236382
H   66.743614   93.688889   58.713665
H   17.132837   41.546875   46.534409
H   65.642014    5.477575   77.657913
H   20.476044   73.000069   26.717150
H   54.048637   18.466419   52.373783
H   83.797852   61.522797   61.105072
H   91.827751    8.048615   96.091812
H   26.829126   79.923767   59.814667
H   26.173737   62.416508   48.254326
H    7.609211   26.436165   26.388409
