100
TIME:    6.199, STEP:  6199
H   98.109695   53.542259   93.470657
H   29.273243   40.779102   68.973488
H   86.319656   19.884727   50.577724
H   82.517090   77.251190    0.373696
H   39.647171   69.634613   97.625778
H   31.890583   94.492256   92.653923
H   28.081078   79.924156   75.222954
H   32.657120   24.894413   39.022495
H    1.244636   90.284729    9.881412
H    5.443319    5.392213   50.433659
H   23.639145   15.672506   42.630333
H   19.241638   34.414295   51.677223
H   48.495804   86.724281    9.057793
H   48.143150   85.968819   28.986713
H   55.899055   16.307587   52.791859
H   52.275803   69.541786   18.469807
H   25.620522   91.986900   37.707771
H   33.629757   93.195877   84.635780
H   41.817616   38.409531   89.949936
H   25.505737   74.168251   38.389336
H   96.419281   39.087566   88.991768
H   56.684509   52.313248   91.376190
H    2.976909   44.206154   54.990051
H   43.081631   10.986300   46.682117
H    7.873021   94.547485   82.320900
H   18.287783   43.402046    7.491617
H   27.531837   84.792252   22.964315
H    9.488566   45.788063   71.680679
H   45.962379   11.513964   64.142029
H   38.689671   37.414696   76.191452
H   60.027023   77.931465   18.933784
H   57.165867   81.239334   25.391548
H    7.005806   14.934080   56.251831
H   40.024803    5.621400   10.597620
H   26.680283   90.318794    2.202048
H   11.506273   70.960960   99.936501
H   74.363197   77.514282   96.922401
H    7.777544   45.509861   59.886547
H   83.410736   46.350273   43.582878
H   79.316513   31.853413   25.758478
H   11.594128   68.883659   88.391457
H   77.795975   65.912521   96.430077
H   64.635895    0.673752   49.233849
H   83.516449   16.692831   86.841148
H   18.938774   87.311295   86.575180
H   98.107780   81.153275    8.345324
H   90.164352   61.960770   84.969490
H   56.570477   59.217667   52.136906
H   46.231514   19.049065   97.192490
H   55.890888   25.084444   50.098328
H   43.075939   71.169998   18.774151
H    6.392683   88.518631   67.110359
H   37.458431   57.952637   42.840839
H   33.137054    6.058047    5.361754
H   47.221611    1.855131   53.074810
H    1.316606    6.012977   81.598206
H   89.241798   10.677207   45.563988
H   64.465240   91.468193   53.883774
H   79.178421    0.691506   35.585091
H   49.947914    4.262991   87.296288
H   50.738544   90.289810   31.073132
H   78.903297   70.242661   14.867938
H   94.910286   84.274208    8.386414
H   68.715012   75.531693   58.839748
H   78.372635   65.741470   72.854805
H   20.532108   34.102318   12.716994
H   90.210770   62.675282   66.349930
H   52.158470   72.064613   62.550648
H   65.861214    4.365715   71.443207
H   55.973686   59.935349   88.679810
H   25.186749   73.621033   87.787392
H   62.830143   45.792313   10.483161
H    2.804343   11.679344    2.803337
H   93.746559   57.083378   34.829399
H   61.048069   37.478794   71.324234
H   72.208336    4.870040   78.814850
H   29.784664   89.261253    0.681688
H   23.220623   45.383301   56.788666
H   58.775890   35.310307   86.844032
H   95.520706   71.330696   86.871849
H   32.177200   93.413162   50.488483
H    6.465052   84.672165   68.394676
H    9.974694   10.787740   20.304543
H   76.630257   42.621239   97.234825
H   50.489601   61.135475   46.828812
H    8.618481   36.753448   72.260544
H   81.171913   52.634987   19.135733
H   55.725975    9.023073   31.303810
H   84.329453   49.021523   77.490974
H   18.263552   54.233829   45.815697
H   77.711266    8.160435   64.373337
H   36.962124   61.703308   51.639969
H   82.821396   13.519292   98.382767
H   46.376431   89.259346   44.788010
H   49.415398   94.460403   58.532352
H    5.933599   50.939545   47.262604
H   70.554924   23.427923   80.679031
H   26.311823   93.185547   54.435120
H   13.406873   63.571751   25.805809
H   24.255190   19.558891    0.570512
