100
TIME:    1.904, STEP:  1904
H   88.562897   47.414780   97.402847
H   48.307045    7.976248   98.104057
H   12.482885   10.885623    0.984483
H   81.796188   54.205650   35.798313
H   78.117096   25.371510   14.079710
H   98.491463   99.145348   67.306053
H   53.180721   89.904488   39.348137
H   70.235649   53.321377   33.375099
H    6.824043    3.231485   80.237480
H   22.808451   43.721977   82.248741
H   23.149582   42.853962   56.345882
H   83.170135   19.128099   57.400093
H   22.149296   46.512810   35.886948
H   60.806602   99.207191    2.134354
H    3.659171   99.954620   59.250389
H   24.969421   45.198730   74.992935
H   70.988708    7.911568   46.708694
H   41.832138    2.108988   33.538376
H   74.917961   58.230377   63.670765
H   41.220612   65.377792   45.965797
H   51.290573   66.669006    5.566887
H   44.915836   46.612999   57.133698
H   60.322884   79.137108   77.874191
H   42.139305   59.517216   65.667786
H   61.485832   35.169472   50.610092
H   37.928638   70.873825   10.710689
H   97.894417   63.332348   37.749104
H   71.887222   45.311993   29.707975
H   52.571548   21.837717   67.169212
H   74.001320   43.716110   34.750668
H   90.999702   92.786377   58.746601
H   85.976990   99.909081   23.001228
H    4.472237   29.176136   69.324310
H   58.549889   99.232620   91.539200
H   33.444923   14.992505   40.668259
H   38.100414   34.052929   14.094407
H   62.416481   34.808449   58.493046
H   85.295280   24.105495   56.800350
H   65.125595   39.863213   59.638535
H   83.857674   33.936947   87.837051
H    5.124756   21.514402   87.201950
H   60.500519   97.309181   92.253311
H   27.641104   74.917664   39.001259
H   57.775826   44.681969   66.896164
H   91.497704   56.766796   19.040602
H   53.523312   99.232674   90.901833
H   56.184559   28.450785   43.892769
H   56.341099   14.986834   86.386681
H   20.686705   74.759544   68.524704
H   65.822105   59.729496   50.495579
H   43.399357   85.824364   73.492325
H   97.664452   87.062195   49.068684
H   48.376007   33.048767   92.288200
H   32.600552   76.142494   15.834803
H   89.182465   25.419443   16.562819
H   95.948563   10.530935   27.810150
H   16.957758   34.608070   37.073769
H   84.281342   97.077957   64.513016
H   40.440887   19.217180   65.313416
H   33.374271   74.136292    9.455724
H   79.806290   90.027412   65.943779
H   31.334545   10.222006    9.203481
H    3.379277   77.314613    2.936267
H   73.784485   52.151779   75.448616
H    7.894322    8.774280   72.877686
H   84.379616   47.619514   58.764690
H   34.807541   14.189666   58.987621
H   48.843529   26.429379   57.224812
H   51.798538   12.977020   40.817375
H   68.956360   43.909134   97.723846
H   61.571907   65.852638   39.311954
H   16.973886   88.334900   96.023338
H   82.847015   24.127010   12.926624
H   88.287773   28.890303   90.048180
H   53.969994   31.352865   45.734356
H   70.672691   29.600775   67.813377
H   39.825821   61.521980   24.721914
H   21.433712   26.222376   19.590160
H   52.817780   47.924656   38.921104
H    6.149601    5.257566   56.889870
H   48.141872   48.979412   93.786705
H   84.182419   56.662125   27.566523
H   38.268887   39.036377   11.246407
H   81.148445   75.089333   89.520538
H   59.620575   29.787819   63.181000
H    7.468051   78.992775   74.002754
H   94.318565   64.916611   14.333458
H   86.605804   52.855682   75.949226
H   95.195015   88.160851   12.622362
H   97.998795   30.939651   92.281624
H    1.942058   76.241226   73.670731
H   19.164003   38.704433   69.799858
H    7.448669   84.682236   66.213760
H   31.256611   28.723913   55.194641
H   23.673061   79.181152   59.838371
H   51.184189   20.544313   69.104828
H   11.472024   76.947212   27.688660
H   13.855979   32.449097   25.571739
H   18.010757   45.057690   85.561722
H   57.486191   29.796741   14.303234
