100
TIME:    6.111, STEP:  6111
H    4.060726   61.612328   93.551224
H   31.703327   36.010242   63.425076
H   84.806351   13.553885   51.610989
H   82.502319   80.876678    5.197412
H   40.435379   62.581024    0.011887
H   33.255512   94.587593   83.939323
H   32.693119   73.982384   68.341240
H   39.573746   17.281559   47.102634
H    3.407879   98.745544   15.420856
H    7.847219    4.128580   46.988102
H   31.824692   12.131781   51.106590
H   22.600586   30.003284   57.941261
H   54.111282   92.045692   17.801933
H   52.500450   86.240059   22.289631
H   54.830132   24.168205   57.023548
H   55.814011   77.238564   25.774830
H   32.696938   86.165977   29.696783
H   31.747862   97.477982   87.686562
H   40.447315   34.717575   85.313339
H   27.876404   76.037392   32.397881
H    1.641322   47.848492   91.380562
H   48.247864   52.196426   98.870209
H    4.151956   44.921852   57.507751
H   51.258450    9.933565   53.218067
H   11.020314    1.526031   81.670998
H   18.688936   46.003670   15.766788
H   35.120323   88.449966   21.218039
H   16.913620   41.680519   68.772232
H   44.048927    3.530004   68.301941
H   35.315281   39.592674   69.195602
H   56.563339   70.039986   25.896065
H   51.609470   83.671097   33.538155
H    0.807061   21.372343   48.324097
H   36.306664   13.685954   14.304682
H   28.868935   96.974373   96.845306
H    3.856706   64.068504    0.213217
H   65.922523   80.736938   89.988319
H   11.414614   47.120518   53.676891
H   87.124847   48.267754   52.110832
H   87.605453   40.091991   18.834803
H   17.608074   65.863762   86.318214
H   85.212112   65.567429   91.937157
H   63.878460    0.145850   42.877831
H   89.135956   15.215780   78.236656
H   26.572105   90.783707   79.044907
H   99.243767   79.474808    7.987811
H   89.476852   57.175125   84.124886
H   56.565777   58.311295   46.691959
H   43.659431   26.336967    0.702596
H   54.043941   23.744692   56.251625
H   43.081982   79.665726   17.846630
H    2.116285   96.684036   72.886971
H   35.632931   57.442383   47.952106
H   35.174713    7.493976    1.478786
H   54.228203   94.143463   52.326214
H    1.207002    6.105544   84.593933
H   83.662575   13.216559   37.194481
H   71.017975   99.778618   56.150375
H   72.237625   96.973274   42.340584
H   55.754738   97.499054   89.799217
H   45.187519   94.382584   37.934032
H   82.026588   71.061752   18.849884
H   88.936287   90.279091   14.420837
H   62.672386   75.052322   61.229214
H   74.880081   72.769547   64.659859
H   25.937778   38.477074    7.513580
H   97.271072   59.633228   62.101395
H   58.237206   67.031898   58.343739
H   61.475330   10.688835   76.962006
H   54.191154   55.508896   88.865112
H   27.981396   79.608459   88.842812
H   70.086380   48.712845    4.040198
H    8.542282   16.031944    5.059845
H   95.684181   62.652531   40.058159
H   56.805576   37.353245   64.653336
H   70.128380   99.230034   84.736481
H   21.793793   96.884865   99.124016
H   19.086224   51.137756   51.928497
H   54.556225   35.568790   85.862465
H   99.836380   76.124397   94.453148
H   30.455095   92.502762   45.228840
H   99.860504   84.101486   75.755760
H    4.408281    9.316228   11.923704
H   70.575691   35.090965    5.272292
H   54.774391   66.639854   55.359451
H   10.644054   33.520721   66.149582
H   75.294594   59.033302   14.939566
H   54.310692   16.064913   32.216225
H   82.503281   53.921303   78.210701
H   26.043917   57.854618   42.670250
H   74.109947    3.408772   62.514935
H   30.451014   55.084778   49.963516
H   77.180405   10.878728   91.577591
H   37.871975   83.920479   38.854294
H   50.936760    2.342670   56.510136
H   98.665100   54.414642   51.807892
H   77.540031   18.378088   85.739944
H   26.481684   88.830933   56.201538
H   17.598907   63.192417   33.176964
H   18.789431   21.817101    9.048001
