100
TIME:    8.974, STEP:  8974
H   10.447341   99.063240   90.930069
H   52.636002   91.151443   43.944706
H   34.025715   19.529308   17.999229
H   82.982864   62.921745   48.267776
H   14.784418   92.062927   22.383373
H   88.856201   91.485893   67.472046
H   82.642296   67.306633   92.231651
H   14.547592   64.965866   84.230934
H   33.029823   23.478939   35.205662
H   29.648024   45.238346   59.089119
H   65.515411   27.329666   75.327782
H   13.327499   73.510902   54.149727
H   71.507431   18.803993   33.296227
H   10.742974   77.415504   40.165859
H   89.604195   68.430916   19.341591
H   40.698730   26.830223   88.120178
H    2.471239   75.530449   90.326973
H   92.967667   58.164085   88.443436
H   85.039093   54.825268   36.146519
H   50.738728   15.241110   27.324213
H   31.746834   62.828186   13.674894
H   22.726465   55.997101   55.059280
H   65.926369   21.642122   75.593460
H   85.244080   44.183319   40.586933
H    8.623263   74.477859    2.813643
H    5.293140   61.549973   46.388950
H   88.240990   69.440140   78.026169
H   75.341064   75.315689   63.407784
H    6.301711   63.283443   32.965416
H   45.095543   68.732895   96.796295
H   69.240791   26.771976   99.384781
H   32.381031    4.571652   68.495949
H    2.472626   11.902027    6.245747
H   57.275131   51.309113   93.691780
H   57.617683   80.212288   71.039154
H   52.731800   88.314240   91.213814
H   40.522346   75.887459   15.581269
H   93.080589   94.723030   55.710403
H   66.278618   85.889854   74.665237
H   17.943300   72.068153   44.090492
H   21.941984   64.099335   53.768032
H   43.934113   76.794708   38.099506
H   88.517426   17.320530   49.673565
H    6.325072   63.277420   58.163486
H   78.227325   77.832848   24.041063
H   62.286499   34.076122   19.619184
H   11.851975   12.874781   11.610210
H   56.735348   87.799286   23.837406
H   27.349442   89.223854   86.497620
H   14.148237   67.325127   56.071575
H   42.885395    3.261353   48.028473
H   41.265850   31.018051   84.948677
H   95.012520   74.043030   81.677200
H   68.871094   60.789589   27.813419
H   26.271950   45.043579   76.669739
H    4.772865    3.093946   87.130646
H   65.163071   30.605690    9.489560
H   57.833191   29.403955   82.404930
H   98.038658   17.952196   22.551191
H   66.826088   17.559200    8.368675
H   25.787626   61.236904   14.713022
H   80.413109   44.413345   89.309776
H   83.305878   94.912987   18.096344
H   59.269497   90.648193   83.495621
H   88.516556   44.105732   31.278631
H   50.061836   96.149590   76.797279
H   67.567642   58.614468    0.326054
H   60.470200   30.770679   95.211700
H    4.163733    4.971916   97.398254
H   12.282271   99.386368   82.809906
H   37.061939   84.808510   54.505684
H   34.280342   53.628319   13.836822
H   21.870285   74.418877   31.656322
H   32.656277   81.454994   69.949074
H   94.758331   41.528965   81.716415
H   37.809013   82.722527   92.093216
H   81.813309   49.078518   49.899231
H   53.588566   63.938622   10.049346
H   91.849892   27.159252   17.806345
H   59.431847   20.163042   47.803062
H   86.496376   22.122507   16.347160
H   14.698187    2.670881   36.239265
H   85.499596   57.195225   84.581444
H   67.544823   80.083717   43.780674
H   15.371933   87.542953   77.825043
H   44.756115   38.683762   64.964996
H   66.508018   50.869255   51.458168
H    0.355617   86.966347    2.531525
H   41.921635   94.514763   54.795052
H   72.917343   40.062225   45.014946
H   91.275719   57.998943   22.976585
H   42.284023   70.410034    4.519923
H   60.704197   96.778740   12.977778
H   14.567938   57.615101   31.900560
H    1.434231   45.893887   22.298738
H   35.137222   41.357971    3.930042
H   50.288231   82.678307   21.085419
H   20.955416   30.494343   98.726158
H   81.212456   75.554100   93.370354
H   96.621841   48.345585   33.246204
