100
TIME:    1.907, STEP:  1907
H   88.360016   47.139664   97.400101
H   48.223595    8.138903   98.293297
H   12.534452   11.101447    0.949264
H   81.796692   54.082054   35.633862
H   78.090225   25.611973   13.998371
H   98.444954   99.142097   67.603142
H   53.023502   90.107048   39.582741
H   69.999855   53.580906   33.099640
H    6.750298    2.943044   80.048653
H   22.726477   43.765053   82.366203
H   22.870529   42.974674   56.056919
H   83.055649   19.278475   57.186546
H   21.958466   46.331306   35.588783
H   60.658058   99.197945    2.362662
H    3.695664   99.686646   59.106171
H   24.848801   44.936317   74.743912
H   70.747513    8.109962   46.981819
H   41.896248    1.963094   33.434372
H   74.964699   58.356239   63.828808
H   41.139793   65.314072   46.170052
H   51.112549   66.370361    5.485462
H   45.203495   46.616959   56.878242
H   60.282829   79.112709   77.788361
H   41.860573   59.553196   65.444992
H   61.378532   34.931549   50.632225
H   37.914883   70.784424   10.429502
H   97.635735   63.207630   37.808636
H   71.634079   45.452023   29.807138
H   52.636780   22.109892   67.027397
H   74.116356   43.641861   34.989162
H   91.117714   93.055405   58.509228
H   86.166412   99.826180   22.723503
H    4.683558   28.956650   69.594574
H   58.676643   98.957687   91.412811
H   33.370354   14.765723   40.850929
H   38.361248   34.288609   14.084096
H   62.704208   34.698586   58.729435
H   85.171272   24.050587   57.012043
H   64.990738   39.799171   59.350990
H   83.575096   33.656086   88.073074
H    4.919746   21.617342   87.272629
H   60.230896   97.443810   92.394257
H   27.666945   74.935654   39.217941
H   57.584251   44.732254   67.189499
H   91.237465   56.648441   19.297327
H   53.484608   99.289894   90.914009
H   56.216236   28.612627   43.918404
H   56.341259   15.017721   86.572304
H   20.774389   74.511070   68.405045
H   65.885002   59.775158   50.285763
H   43.399128   85.534737   73.523956
H   97.810249   86.783829   48.871731
H   48.438240   33.066162   92.113976
H   32.531086   76.093559   15.967176
H   88.943649   25.682440   16.588270
H   95.952316   10.527782   27.708023
H   17.147936   34.521507   37.359093
H   84.057953   96.794647   64.435745
H   40.677483   19.343946   65.083115
H   33.176311   74.366867    9.370402
H   79.995529   89.887886   65.709862
H   31.228081   10.194077    9.067737
H    3.582768   77.110039    2.730452
H   73.990479   52.168098   75.367180
H    8.013400    8.534669   73.157059
H   84.195320   47.470375   58.942074
H   34.566849   14.293378   59.132458
H   48.636299   26.600960   57.368229
H   51.948067   12.761459   40.629211
H   69.017151   44.060036   97.717529
H   61.476646   65.648521   39.275974
H   16.726522   88.235336   96.242973
H   82.651413   23.978626   12.849697
H   88.221764   28.700457   89.869881
H   54.114624   31.357134   45.961773
H   70.743599   29.793047   67.611504
H   40.098213   61.261948   24.774981
H   21.574657   26.026213   19.755848
H   52.961586   47.915867   38.954567
H    6.002473    5.094179   56.631416
H   48.200581   49.010448   93.966011
H   84.407501   56.681717   27.315657
H   38.458698   39.086456   11.532137
H   81.354805   75.346046   89.246521
H   59.474503   29.600159   62.890182
H    7.399001   79.102959   74.211082
H   94.518929   64.698486   14.476515
H   86.654099   52.615494   75.918007
H   95.257271   87.993813   12.597820
H   97.733566   30.816216   92.388878
H    2.064833   76.403229   73.734085
H   19.385973   38.930065   69.857033
H    7.641148   84.772141   66.445847
H   31.546581   28.905886   55.396904
H   23.621185   78.912445   59.907310
H   51.431976   20.425856   68.949875
H   11.233901   77.119377   27.516129
H   13.866994   32.474640   25.523731
H   17.867855   45.070621   85.310410
H   57.672501   29.719688   14.014288
