100
TIME:    1.721, STEP:  1721
H    0.938595   64.196854   97.570389
H   53.397514   98.054298   86.560448
H    9.337294   97.720207    3.132833
H   81.765472   61.745018   45.829861
H   79.756210   10.703252   19.041168
H    1.328889   99.343605   49.182507
H   62.771076   77.548302   25.037300
H   84.619087   37.490101   50.178116
H   11.322533   20.826385   91.755959
H   27.808867   41.094368   75.083549
H   40.171799   35.490513   73.973434
H   90.153824    9.955433   70.426445
H   33.789833   57.584511   54.074974
H   69.867805   99.771248   88.208656
H    1.433050   16.300648   68.047073
H   32.327286   61.205925   90.183365
H   85.701645   95.809464   30.048006
H   37.921440   11.008486   39.882614
H   72.066963   50.552788   54.030148
H   46.150520   69.264755   33.506294
H   62.150055   84.886353   10.533794
H   27.368656   46.371460   72.715675
H   62.766197   80.625435   83.109863
H   59.141975   57.322422   79.258194
H   68.031120   49.682755   49.259987
H   38.767742   76.327301   27.863340
H   13.674656   70.938858   34.117641
H   87.328964   36.770168   23.659029
H   48.592438    5.234827   75.819939
H   66.984123   48.245316   20.203045
H   83.801003   76.375687   73.227264
H   74.422211    4.964843   39.942467
H   91.582352   42.565346   52.838226
H   50.817848   16.003212   99.248901
H   37.993675   28.825874   29.525352
H   22.189125   19.677069   14.723386
H   44.865112   41.510109   44.073307
H   92.859779   27.454929   43.887089
H   73.351883   43.769722   77.177689
H    1.094854   51.069462   73.439651
H   17.630333   15.235087   82.890549
H   76.947510   89.096855   83.655640
H   26.064817   73.820267   25.783302
H   69.461845   41.614563   49.003902
H    7.371918   63.986439    3.380358
H   55.884251   95.742226   90.159065
H   54.252247   18.578402   42.329048
H   56.331326   13.102690   75.063667
H   15.337941   89.916466   75.823929
H   61.984669   56.944118   63.294353
H   43.413319    3.491742   71.562805
H   88.770790    4.042731   61.082806
H   44.579796   31.987671    2.916125
H   36.837955   79.127525    7.760000
H    3.750498    9.376646   15.010044
H   95.719589   10.723259   34.039902
H    5.356585   39.888420   19.668997
H   97.908051   14.360236   69.226517
H   26.008583   11.484645   79.361771
H   45.449825   60.070789   14.660331
H   68.262680   98.538521   80.212730
H   37.829498   11.925694   17.483932
H   90.966980   89.793663   15.491052
H   61.218559   51.156303   80.416222
H    0.630565   23.390354   55.835255
H   95.621651   56.717018   47.944302
H   49.489761    7.863225   50.152599
H   61.484535   15.962922   48.476353
H   42.677299   26.126236   52.295364
H   65.248108   34.704124   98.109192
H   67.382805   78.303764   41.506748
H   32.063091   94.408279   82.625603
H   94.778763   33.178440   17.619183
H   92.314354   40.471420    0.924421
H   45.147537   31.092478   31.861912
H   66.347328   17.872171   80.127678
H   23.210260   77.382797   21.484873
H   12.836040   38.188690    9.483443
H   44.045586   48.460789   36.879890
H   15.124554   15.224192   72.655525
H   44.560673   47.086193   82.849037
H   70.452393   55.466995   42.868851
H   26.690372   35.981537   93.816711
H   68.560493   59.429790    6.235603
H   68.530991   41.235092   80.920853
H   11.680302   72.271568   61.294731
H   82.096413   78.222198    5.607037
H   83.659866   67.507187   77.853615
H   91.397408   98.350166   14.119415
H   14.178617   38.469246   85.739128
H   94.452919   66.359070   69.806107
H    5.623621   24.941256   66.312202
H   95.707222   79.198044   52.056503
H   13.568464   17.623590   42.856606
H   26.837502   95.572296   55.633080
H   36.069153   27.770239   78.556961
H   25.997284   66.445152   38.213058
H   13.184068   30.890961   28.500225
H   26.727802   44.268848    0.891692
H   46.121292   34.497349   31.929264
