100
TIME:    6.151, STEP:  6151
H    1.355743   57.944115   93.514603
H   30.598743   38.177906   65.947121
H   85.494217   16.431541   51.141323
H   82.509033   79.228729    3.004809
H   40.077103   65.787201   98.927292
H   32.635090   94.544258   87.900505
H   30.596764   76.683189   71.469292
H   36.429825   20.741947   43.429844
H    2.424583   94.899719   12.902926
H    6.754538    4.702959   48.554264
H   28.103989   13.741201   47.253746
H   21.073792   32.008289   55.093971
H   51.558792   89.626869   13.827324
H   50.519859   86.116768   25.333759
H   55.316048   20.595184   55.100086
H   54.205734   73.740028   22.454365
H   29.480385   88.811852   33.338142
H   32.603268   95.531570   86.299843
H   41.070179   36.395737   87.420883
H   26.798828   75.187782   35.121269
H   99.267670   43.866253   90.294746
H   52.082703   52.249527   95.463837
H    3.617846   44.596535   56.363342
H   47.541714   10.412081   50.247181
H    9.589726   98.353882   81.966408
H   18.506594   44.821114   12.005344
H   31.670937   86.787369   22.011801
H   13.538585   43.547585   70.094254
H   44.918678    7.159075   66.411072
H   36.849094   38.602684   72.375534
H   58.137741   73.627022   22.731392
H   54.135105   82.565750   29.835152
H    3.624672   18.445860   51.927612
H   37.996727   10.020259   12.619654
H   27.874519   93.950691   99.280609
H    7.333765   67.201439    0.087422
H   69.759193   79.272095   93.140175
H    9.761400   46.388401   56.499462
H   85.436615   47.396172   48.234489
H   83.837753   36.347179   21.981928
H   14.874462   67.236443   87.260597
H   81.841141   65.724289   93.979393
H   64.222809    0.385806   45.766930
H   86.581635   15.887167   82.147789
H   23.102409   89.205338   82.467758
H   98.727409   80.237747    8.150316
H   89.789352   59.350418   84.508797
H   56.567913   58.723282   49.166935
H   44.828560   23.024284   99.107040
H   54.883442   24.353670   53.454651
H   43.079235   75.804031   18.268230
H    4.060102   92.972488   70.261238
H   36.462704   57.674316   45.628803
H   34.248505    6.841281    3.243773
H   51.043388   97.648712   52.666485
H    1.256822    6.063468   83.232239
H   86.198586   12.062308   40.998802
H   68.039459   96.001152   55.120102
H   75.392532   98.663338   39.269905
H   53.115273    0.573444   88.661522
H   47.710712   92.522232   34.815441
H   80.606911   70.689438   17.039886
H   91.651741   87.549599   11.677917
H   65.419113   75.270218   60.143093
H   76.467606   69.574966   68.384834
H   23.480656   36.488548    9.878768
H   94.061844   61.015980   64.032547
H   55.474144   69.319496   60.255970
H   63.469044    7.814690   74.453461
H   55.001396   57.520920   88.780884
H   26.711102   76.886902   88.363075
H   66.788040   47.385330    6.968818
H    5.934128   14.053490    4.034149
H   94.803444   60.121098   37.681450
H   58.733982   37.410313   67.685562
H   71.073814    1.793639   82.044830
H   25.425537   93.418068   99.831413
H   20.965496   48.522095   54.137665
H   56.474255   35.451298   86.308632
H   97.874710   73.945442   91.007103
H   31.237871   92.916580   47.619587
H    2.862582   84.360886   72.409813
H    6.938455    9.985097   15.733137
H   73.327766   38.513817    1.618983
H   52.826759   64.138023   51.481888
H    9.723339   34.990143   68.927292
H   77.966103   56.124977   16.846914
H   54.954002   12.864077   31.801491
H   83.333359   51.694130   77.883553
H   22.507387   56.208805   44.099998
H   75.746910    5.568620   63.359661
H   33.410610   58.093201   50.725540
H   79.744492   12.078984   94.670853
H   41.737637   86.347237   41.551437
H   50.245232   98.759720   57.429325
H    1.968954   52.835052   49.741852
H   74.364983   20.673468   83.439529
H   26.404474   90.810303   55.398621
H   15.693402   63.364841   29.826439
H   21.273867   20.790642    5.194595
