100
TIME:    8.364, STEP:  8364
H   51.698723   55.002403   91.488541
H   69.483231   58.098400    5.481536
H   23.540407   75.643753   25.159302
H   82.880478   88.052971   81.703804
H   20.250460   43.168736   38.922089
H   98.312988   92.146751    7.060599
H   14.613351   26.115068   44.528858
H   62.492386   12.194774   40.239349
H   48.024788   82.128113   73.604080
H   46.309425   36.479649   35.205147
H   22.256119    2.786427   34.086937
H   36.611115   42.934582   97.570900
H   10.405205   55.723625   93.915970
H   40.945549   79.295692   93.743553
H   82.195137   22.919113   48.675316
H   65.224945   80.182884   38.756134
H   51.523933   35.184193   34.796272
H   79.923019   87.846855    9.589491
H   75.535767   29.233303    4.011054
H   67.172653   28.195326   85.792641
H   67.945107   23.554516   30.231253
H   64.245171   55.187317    7.006390
H   74.070747   26.600885   93.045700
H   41.921799   36.885956   85.890701
H   30.438957   22.853020   98.309975
H    8.170433   79.532761    3.792145
H   40.841927   94.794754   65.925949
H   26.811960   46.842945   43.242302
H   93.037651    7.939744   61.801170
H   21.705910   83.830246   48.302338
H   45.232182   72.071083   47.646019
H   93.865471   21.424206   24.966667
H   59.506855   56.532173   51.292130
H   31.501617    7.212035   19.389174
H   72.798805   26.397820   33.924938
H   99.706314   40.534698   93.131233
H   82.015160   98.226326   67.515831
H   18.293190    5.885099   12.666198
H   92.024162   99.181480   33.778221
H   75.397568   29.173395   96.096436
H   63.631332   43.170586   39.396694
H   95.341431   74.402588    6.958204
H   83.267792   13.660957    5.614527
H   45.273792   53.034119   98.523224
H   31.141060    1.894017   71.841240
H   70.159935   22.443207   17.140966
H    7.082748   79.700630    5.752298
H   56.698116   81.516479   86.094490
H    9.520233   39.743332   10.829880
H    1.344111   58.038868   98.721062
H   42.927280   62.153328   41.596741
H   11.618883   87.621826   24.992176
H   82.363136   70.506042   17.104040
H   83.000427   70.741196    0.897404
H   74.840645   91.585663   71.485260
H    4.013111    3.735607    7.896500
H   26.493423   48.206856   51.473488
H    3.255466   87.010414   98.116600
H   49.926327   92.176933   69.382690
H    7.081971   70.673843   25.718529
H   87.307846   89.606812   62.271572
H    2.063214   50.091141   16.909653
H   41.892719   36.539093   59.925873
H   17.380280   87.325287    0.054329
H   64.306808   92.824982   74.471725
H   87.535286   26.473991   40.729313
H   16.509089   37.527508   70.875961
H    2.606953   95.882866   66.050171
H   73.763733   48.802635   35.657440
H   99.893227   68.744888   84.103699
H   56.436253   26.314102   61.821663
H   84.512115   73.882225   69.122849
H   61.642776    4.594527   47.298183
H   46.082867   20.062683    6.193584
H   65.373413   40.630756   35.465656
H   23.386484   43.627083   33.138580
H   26.412682    1.874175   39.078842
H   24.933741    3.822811   76.356140
H   62.595505   28.951015   10.998499
H   89.347313   53.392937    0.355239
H   74.554390   15.811776   79.887787
H   68.923141   98.712296   87.271736
H   46.916451   46.993809   26.488079
H   25.579578   27.885046   99.495842
H   45.073318   25.702511   36.956932
H   58.797024   16.276718   22.604919
H   25.767504   95.221214   22.371101
H   90.545158   35.778374    8.856339
H   29.262440   28.477713   59.784065
H   26.848577   65.160660   23.210344
H   66.312035   25.063076   10.094504
H   97.150200   24.531963   92.896080
H   21.601871   78.479485   65.805542
H   55.613258   20.607044   90.770500
H   11.982010    0.532616    8.282785
H   84.753677   65.446716   35.437599
H   98.707726   47.671440   56.167473
H   22.132860    0.311397   10.973215
H   10.271340   72.919975   44.465237
H   58.730183   63.996754   92.009171
