200
TIME:    0.839, STEP:   839
H   27.877062   60.487041   25.582106
H   33.302917   41.622875   14.214609
H    5.583158   95.356285   74.852165
H   38.033600   83.975014   28.835995
H    8.850407   98.910812   45.046322
H   70.132080   36.557194   47.819889
H   12.037665   54.879120   61.245472
H   16.311882   14.751346    3.810644
H   11.753979   78.526161   33.106819
H   89.775269   66.507690   72.445518
H   33.071861    7.389841   11.890633
H   33.254745   58.011013   41.283550
H   25.875889    6.888106   36.741600
H   76.092133   55.734150   71.129967
H   90.702347   76.555725   41.504765
H   11.840812    1.286055   41.401310
H   12.385093   35.772480   86.349129
H   22.338808   11.963362   32.856255
H   84.955223    8.016299   51.301662
H   91.961945   71.478661   14.250471
H   65.273697    6.659619   98.397896
H   76.693748   71.710106   47.491585
H   77.067932   58.186241   34.763535
H   21.295713   93.520340   89.707809
H   29.282021   36.794842   24.036427
H   18.165247   88.919868   87.172989
H   10.495827   70.815880   73.165802
H    8.257583   94.839462    2.307404
H   36.297318   38.322823   34.830883
H   65.981270   36.811127   77.905487
H   12.579450   76.474617   16.927156
H   21.033440   77.545395    8.350980
H   12.650085   21.874413   80.495735
H   76.601860   64.231430   48.760185
H   19.242584   65.049850   29.662205
H   13.494696   36.264484   86.345200
H    3.456697   61.500450   90.451820
H    3.286171   60.249924   88.235725
H   30.901146   24.951662   57.746349
H   84.338249   37.225254   40.297943
H   80.682541   77.241829   21.406422
H   43.154037   30.546089   22.069166
H   65.916641   74.021637   72.570511
H   35.946823   92.326561   40.170952
H   49.243603   94.570610   65.980049
H   32.630413   98.249664   49.202423
H   91.262070   96.865402    9.311755
H   75.532928   65.541466   26.113785
H   10.245833    6.021197   61.598198
H   40.681778   20.504663   80.371407
H   63.958954   62.914474    4.130069
H   98.240669   46.007915   76.420006
H   68.333336   77.292503   15.755345
H   13.491490   94.824341   90.573547
H   51.844498   63.063362   71.401093
H   97.627251   57.592510   98.262695
H    3.721039   19.012184   43.229160
H   73.952927   72.504204   94.491493
H   15.541664   86.048721   21.613758
H   29.249313   92.625648   55.921104
H   48.479549    3.689758   24.735186
H    0.702339   17.843870   53.658386
H   87.949608   37.614662   64.676346
H   38.639763   66.006927   17.041538
H   80.977379   85.008865   42.424183
H   15.242210   39.832359   43.630234
H   63.800392   10.526812   98.210701
H   93.987038   92.811790   99.130722
H   37.828690   13.947873   54.398163
H   41.788895   52.070168   50.950603
H   58.202389   86.952339   89.303787
H   15.305735    8.077303   40.571846
H   96.505020   36.018734   79.437996
H   27.380199   95.798340   78.011330
H   86.438766   10.567994   39.447762
H   68.454193   97.929443   58.963261
H   92.895798   52.249546   63.672691
H    4.369251   16.877403   27.484764
H   16.087196   56.376884   21.662830
H   59.249123   87.326271   65.854462
H   68.791046   19.978340   92.240646
H   52.975464   57.817429   69.339561
H    8.662725   20.236828   72.753738
H    5.140755   81.446648   13.374117
H   17.577709    5.658053   40.806904
H   41.542461   64.816269   15.313588
H   62.701725    4.032292    3.144599
H   70.350182   96.250504   34.035061
H   84.020248   73.515129   79.327942
H   20.443920   12.896770   48.275555
H   16.133638   40.063759   78.090172
H   79.883011   93.790970   11.437901
H   75.715782   10.106485   78.669991
H   33.167648   72.913483   85.552124
H   40.302414   48.823578   92.887451
H   44.466072   41.101704    0.898081
H   87.431068   93.560249   24.126633
H   94.032471   38.364422   55.007465
H   23.444984   63.777611   55.004017
H   77.619476    7.660365   27.396646
H   36.591518   96.988098   97.145882
H   12.845539   85.718895   62.560486
H   35.596107   15.278763   38.873016
H   50.658211   69.045425   13.949944
H   24.544701   19.600895   44.507782
H   11.137497   97.446098   15.846264
H   90.429398   36.916042   52.729004
H   61.221352   57.272938   95.579567
H   88.019257   32.528576   28.097294
H   23.608747   19.708700    8.468924
H   55.075520   90.861542    1.217291
H   10.045215   78.408142   97.334183
H   46.690418   87.225639   80.906281
H   61.195091    6.483682   59.508022
H   43.861046    6.911488    5.769770
H   89.593216   88.275169    5.957012
H    7.946983   16.877289   91.163071
H   37.732059   56.479881   22.005089
H   41.610210   80.202614   53.935928
H   86.590286   58.630001   71.688599
H   46.806343   25.739910   67.891647
H   92.444176   13.290157   65.807594
H   46.677620   96.559219   41.799110
H   95.252312   45.764034   91.633873
H   58.992805   94.121613   73.002151
H   69.667259   78.741066   13.965899
H   80.497551   51.986771   47.921387
H   62.326462   92.267937   40.061573
H   99.839142   30.801270   71.239655
H   96.778450   21.310228   76.706436
H   72.788864   63.798065   26.302509
H   58.708298   91.992386   23.452877
H   90.481789   11.737209    1.831518
H   71.549126   28.360649   57.079105
H   34.017071   90.539230   28.891731
H   46.404182    0.858089   74.856918
H   69.884407   88.090904   85.157959
H   96.327614   45.518196   73.733887
H   61.970078   52.710457   71.408417
H   43.772415   80.362312   78.813522
H   80.272438   45.453571   34.259323
H   29.662970   59.210880   60.210548
H   35.749775   67.785347   79.180244
H   30.265617    4.844853   88.050484
H   68.457756   49.901253   68.655594
H   67.888000   72.295258    1.157879
H   58.898277   94.154610   42.992943
H   26.296387   51.121628   65.388329
H   81.198578   39.782986   91.989738
H   28.556417   95.214478   67.581047
H   55.107754   71.482788   46.822174
H   59.002384   90.534866   29.381023
H    4.002586    9.440983   82.437645
H   25.744043   14.892041   61.149826
H   37.365150   69.698944   71.589386
H   81.283997   45.014156   72.490562
H   65.581314   78.847893   87.848434
H   54.562275   27.049171   23.757483
H   84.966507   99.477203   80.390305
H   56.964050   32.503418    1.228115
H   59.839832   60.074097   67.489410
H   15.479610   19.952124   30.354733
H   91.003334    8.453608   36.982986
H   33.261940   37.776474   45.571835
H   53.218826   42.413471   15.710143
H   22.233915   45.380081   59.027412
H   64.585327   87.878548   58.571724
H   24.155479   58.185802   72.782150
H    2.212602   26.222244   35.442516
H   53.808453    5.939405   83.658020
H   67.921692   12.757318   35.925804
H   25.469585   43.198177   59.297543
H   49.246487   51.714867   73.569839
H   63.849895   60.211285   88.136665
H   43.597382   90.530518   71.066467
H   19.398460   50.899761   23.870312
H   29.264229   71.633980   11.964245
H    7.038861    9.772110   72.539536
H   60.282349    7.454401   62.129631
H   57.807034   60.880531   94.834946
H   70.481789    6.655156   27.792547
H   31.309624   30.837246   91.483650
H   38.054329   89.534721   17.934425
H   64.525627   26.328712   99.226860
H   93.269127   62.353889   75.929031
H   11.800172   41.278198   86.952126
H   52.209503   94.264572   12.537571
H   61.643715   92.597237   46.486530
H   89.271065   63.844574   73.389282
H   60.506184   55.014896   73.270950
H   76.434380   11.206509   75.023933
H   42.742443    1.207616   16.994761
H   17.405621   31.774450   71.528915
H   24.639053   87.436836   45.384956
H   64.338715   27.500422   19.856894
H   76.790543   11.853274   21.359781
H   13.442899    1.892799   23.684492
H   11.501042   85.501312   30.073681
H    3.925510   13.287945   51.227684
H    1.760199   14.698686   89.426811
