100
TIME:    6.087, STEP:  6087
H    5.683727   63.813255   93.573196
H   32.366127   34.709644   61.911709
H   84.393631   11.827292   51.892788
H   82.498291   81.865448    6.512979
H   40.650345   60.657318    0.662589
H   33.627766   94.613594   81.562614
H   33.950871   72.361900   66.464409
H   41.460098   15.205308   49.306309
H    3.997856    1.053061   16.931585
H    8.502829    3.783952   46.048405
H   34.057114   11.166128   53.418297
H   23.516663   28.800282   59.649635
H   55.642776   93.496986   20.186699
H   53.688805   86.314034   20.463154
H   54.538261   26.311935   58.177296
H   56.778976   79.337685   27.767109
H   34.626869   84.578453   27.511969
H   31.234617   98.645828   88.518593
H   40.073597   33.710678   84.048813
H   28.522949   76.547157   30.763849
H    3.065506   50.237835   92.032051
H   45.946960   52.164566    0.914021
H    4.472414   45.117043   58.194397
H   53.488491    9.646456   55.000599
H   11.878667    3.429413   81.493752
H   18.798342   46.713203   18.023655
H   37.189964   89.447525   20.741781
H   18.938675   40.560280   67.979019
H   43.527077    1.352569   69.436462
H   34.394993   40.186668   67.287643
H   55.618698   67.887764   27.794868
H   50.094090   84.334305   35.759956
H   99.116570   23.128233   46.161987
H   35.292625   15.885371   15.315699
H   29.465584   98.788582   95.384125
H    1.770470   62.188744    0.288694
H   63.620552   81.615845   88.097206
H   12.406542   47.559788   51.983349
H   88.137787   48.790703   54.436638
H   89.866074   42.338879   16.946527
H   19.248241   65.040154   85.752785
H   87.234695   65.473312   90.711815
H   63.671734    0.001877   41.144371
H   90.668549   14.812948   75.889977
H   28.653923   91.730728   76.991196
H   99.553581   79.017044    7.890307
H   89.289352   55.869949   83.894539
H   56.564495   58.064102   45.206974
H   42.957954   28.324577    1.659998
H   53.540577   23.379385   57.930153
H   43.083630   81.982742   17.593670
H    0.949995   98.910965   74.462410
H   35.135067   57.303223   49.346088
H   35.730438    7.885592    0.419790
H   56.139091   92.040314   52.122051
H    1.177110    6.130790   85.410950
H   82.140968   13.909110   34.911888
H   72.805084    2.045167   56.768539
H   70.344681   95.959236   44.182991
H   57.338417   95.654449   90.481834
H   43.673603   95.498795   39.805187
H   82.878395   71.285141   19.935883
H   87.307014   91.916786   16.066589
H   61.024254   74.921585   61.880886
H   73.927567   74.686295   62.424870
H   27.412052   39.670189    6.094467
H   99.196609   58.803577   60.942703
H   59.895042   65.659340   57.196400
H   60.279102   12.413322   78.467133
H   53.705009   54.301682   88.915649
H   28.743572   81.241394   89.130653
H   72.065384   49.509354    2.283015
H   10.107193   17.219017    5.675262
H   96.212624   64.171410   41.484184
H   55.648533   37.319004   62.834000
H   69.561119   97.691948   86.351471
H   19.614746   98.964943   98.699577
H   17.958660   52.707153   50.602997
H   53.405407   35.639286   85.594765
H    1.013326   77.431770   96.520775
H   29.985430   92.254471   43.794392
H   98.059113   83.945847   77.763329
H    2.890176    8.914907    9.638044
H   68.924446   33.037254    7.464271
H   55.942970   68.140953   57.685989
H   11.196484   32.639069   64.482956
H   73.691689   60.778297   13.795156
H   53.924706   17.985415   32.465065
H   82.005234   55.257607   78.406990
H   28.165834   58.842106   41.812401
H   73.127769    2.112854   62.008099
H   28.675257   53.279724   49.506302
H   75.641953   10.158574   89.721634
H   35.552578   82.464424   37.236008
H   51.351677    4.492488   55.958622
H   96.682800   55.362396   53.047516
H   79.445061   17.000860   87.120193
H   26.528009   87.643311   56.683289
H   18.742218   63.088963   35.187279
H   17.298769   22.432976   11.360028
