100
TIME:    0.877, STEP:   877
H   58.014320   41.595894   98.343094
H   76.874870   52.295635   33.321072
H   94.832520   36.998470   13.042450
H   81.623810   96.516747   92.091667
H   87.315842   43.052940   41.925606
H   14.416920    0.259155   65.598717
H    7.007619   20.556395   59.035313
H   50.955826   64.472488   27.670677
H   32.069664    1.973334   44.883415
H   50.873528   28.976582   42.033249
H   18.678619    1.530683   55.271759
H   22.367176   67.650200   30.502714
H   87.476334    8.647686   37.962288
H   11.657825    2.373275   23.979977
H   91.168571   91.687500    8.615091
H   66.261917   35.028301   60.241684
H   53.557045   39.994400   53.203789
H   19.885216   52.052200   69.142380
H   58.920586   15.143580    9.567408
H   68.909798   87.144684   76.018745
H   12.234116   68.910004   33.441078
H   46.440357   45.257477   44.580967
H   74.034813   87.489632    7.257385
H   37.558746   47.199986   41.941429
H   98.218132   16.621807   43.033272
H   42.637707    1.478590    6.972313
H   86.454239    6.020400   17.369261
H   58.541412   97.374588   95.761826
H   30.240692   28.660025   15.716160
H   34.620663   69.134109   53.107388
H   50.600437    0.687970   40.013268
H   21.131323   28.281876   18.075768
H   32.132122    4.317184   76.804039
H   15.157472   93.350990   34.803902
H   58.972618   92.625557   78.131271
H   48.806946   53.377941   17.626699
H   63.913754   72.418312   77.569527
H   27.743019   42.902592   84.328819
H   11.293013   61.786629   58.071396
H   80.589470   30.081167    7.034212
H   75.307587   86.273430   63.005947
H   52.801414   51.219254   44.002995
H   18.794950   68.759048   64.818550
H   23.356749   27.468653   66.481575
H   80.581825   97.290024   31.155142
H   66.750740   79.690727   86.757454
H   45.340382   73.050995   35.117134
H   56.286251    4.412977   22.841688
H   90.666679   59.815071    9.489429
H   44.283283   44.097897   22.326584
H   43.477711   84.974617   62.663822
H   47.753029   82.360214   16.487930
H   27.071589   27.093872   51.935921
H   56.380955   92.894554   70.516251
H   70.942688   35.387157    7.848034
H   94.663559   11.610260   62.771652
H   51.848709   64.241508   39.397514
H   60.755310   94.065559   90.965286
H   59.442970   75.823746   44.155895
H    1.146723   95.196243   38.665611
H   15.022297   37.786392   46.017326
H   67.784698   19.782364   55.674881
H   33.719009   47.348991   73.392433
H    3.260775   46.565147    3.327864
H   67.133736   90.799461   77.235008
H   47.469765   98.674904   98.040947
H   17.205282   78.681824    9.403500
H   19.785576   67.693649    8.128272
H    0.610421   86.770706    5.227596
H   48.151535   92.253563   99.886414
H   94.182793   35.730846   51.629185
H    1.654988   22.419762   20.831034
H   49.810028   74.925514   39.261364
H   10.887933   93.881058   51.085884
H    4.456384   29.891565   67.880424
H   46.392979   63.781616   36.918766
H   46.581173   50.533562    6.552305
H   73.183380   93.375725   62.875210
H    3.588125   50.933445   27.467319
H   56.515823   61.192528   45.366791
H   28.044102   38.354626   32.404278
H    7.124699   49.955032   13.443499
H   73.286140   21.894857   13.429682
H   10.498808   87.207619   83.325813
H    9.626518   94.026505   62.737144
H   31.107395   41.268497    2.684694
H   25.727575   39.587883   65.361832
H   70.073135   35.079094   86.624687
H   73.882759   45.341835   21.025028
H   88.798141   73.197601   55.564999
H   59.912998   20.787664   51.982372
H   43.176075   61.464790   50.232574
H   41.553474   53.907402   86.761742
H   31.993181   66.430672   85.950020
H   41.429890   71.173981   36.238182
H   66.358185   61.099174   22.150963
H   92.990524   18.009428   86.751816
H   10.085198   23.704803   42.004082
H   66.933800   40.630695   71.588539
H   93.706100   56.178165   13.218166
