100
TIME:    7.207, STEP:  7207
H   29.941843   61.104378   92.547806
H    1.437550   95.399803   32.529285
H    3.652463   92.404839   38.742153
H   82.686279   35.722870   45.122982
H   30.618017   50.430172   70.293991
H   16.255939   93.400215   92.479416
H   75.250305   47.989536   54.049938
H   53.430305   12.099572   46.471497
H   76.466057   93.369629   46.432339
H   77.910835   19.866838   89.900948
H   29.877441   56.231815   45.534554
H   80.770294   84.940414   79.927147
H   84.183189   25.754910    8.895050
H   98.234138   82.861885    5.695118
H   68.142220   26.268059    4.319007
H   11.745316   81.378357   34.797363
H   44.563087   58.656605   29.469995
H   55.186031   44.146317   49.693619
H   57.513783   80.696167   43.053921
H   98.350357   52.762135    7.018639
H   36.603119   38.737961   61.629887
H   53.322449   53.651382    5.535642
H   89.518364   36.008156   26.150160
H   49.424133   23.044893   71.820007
H   71.820747   14.608406   89.765236
H   13.625683   13.639317   12.671676
H   40.611294   42.890915   42.967121
H   24.436295   92.838112    4.996484
H   67.880104    2.967709   16.493380
H   77.341766   12.466669   56.324272
H   99.695030   68.320419   39.184105
H   20.811489   53.387531   32.075951
H   78.008919   41.183540   47.060432
H   82.614403   13.244092   68.131882
H    1.593238   13.998970   63.532867
H   99.130226   49.912155   96.768044
H   71.043381   40.600220   76.348785
H   66.111839   27.060520   31.019333
H   40.863094   24.387739   45.900238
H   84.374382   37.488056    5.065842
H   42.703796    3.474504   12.138586
H   92.847145   69.865402   47.889545
H   73.310699    6.720564   22.043377
H   19.152912   33.611778   85.397697
H   31.502266   47.539577   72.832466
H   85.095573    0.379289   12.440477
H   98.039352   16.779213   94.644051
H   56.627499   69.599747   14.505871
H   75.696602   35.566074   56.985580
H   77.052002   40.428585   79.619179
H   43.006725   73.854095   29.398479
H   55.388943   94.982361    0.941935
H   58.368710   63.797363   84.297737
H    9.796600   89.613770   49.840897
H   66.962845   90.191811   61.649639
H    2.572069    4.952659   47.283508
H   53.143353   81.591362   41.433189
H   89.407883   96.274834   27.920279
H   58.676788   43.288105   58.203667
H   83.431007   81.742264   58.626366
H   14.323456   43.412331   52.480728
H   43.127419   60.860336   69.261673
H   63.345135   15.490096   39.264832
H   37.931423   81.022659   31.469509
H   18.380207   85.233368   66.725502
H   58.610016   83.992088   72.317932
H    9.337133   97.528015   15.016036
H   82.528877   29.713953   10.738875
H   16.097069   31.937271    8.221326
H   76.396446   10.632342   86.557251
H   93.176918    5.037473   75.698036
H   79.786583   12.301034   84.316765
H   37.081787   61.823376   76.962708
H   71.551979   93.288635   74.938263
H    9.640183   38.927105   47.741230
H   96.033287   69.475121   10.990222
H   21.332275    2.015619   18.558470
H   70.578293   79.472801   12.454387
H    7.116155   32.349491   98.087440
H   46.086624   16.419937    0.031803
H   51.903770    3.842080   10.735259
H   82.103889   91.209167   84.066460
H   73.734871   27.644567   16.300987
H   45.979221   28.878033    5.169721
H    1.408567   98.080956   49.114510
H   85.421616   73.780838   42.259247
H   48.494022   79.344856   67.200920
H   71.937401   28.362192   20.852516
H    5.248144   92.898445   69.246834
H   29.142851   12.759342   81.849167
H   18.962879   62.587288   85.660446
H   11.543917   37.514252   70.845711
H   47.436024   43.765751   76.332954
H   43.794968   50.413170   12.755778
H   31.988880    4.169703   81.695923
H   89.190216   11.135661   95.197807
H   90.544853   81.274765   22.707954
H   24.366144   43.061375   34.201599
H   65.388206   67.923775   41.375874
H   86.865791   93.691483    3.466519
