100
TIME:    3.838, STEP:  3838
H   57.773834   70.057190   95.632217
H   94.508568   12.834276   20.099531
H   45.726463   50.024834   78.290443
H   82.120804   74.524345   29.788786
H   60.794434   80.390129   61.640549
H   68.508797   97.050102   58.836784
H   51.819790   20.497295   90.589531
H   18.227066   20.638073   55.802319
H   59.282570   17.285477   58.499706
H   69.958336   71.491356   57.983810
H   43.253616   20.672535   70.053139
H    9.353455   16.069483   19.735910
H   99.127853   29.503204   43.662842
H   65.045647   93.246071   49.314312
H   27.186089   27.201485   66.284950
H   47.207214   76.043510   14.453638
H   15.478145   35.824375   22.776632
H   83.154747    8.058656   66.487000
H    5.046659   39.362770   65.561310
H   89.116753   24.312059   77.641533
H   36.524353   74.132812   53.071587
H   30.333145   49.178986   92.437149
H   34.501198   63.408012   22.540745
H   62.449715   82.712463   22.029629
H   92.315826   81.786942   64.884315
H   29.058287   13.250594   29.435183
H   31.123457   82.936478   76.122841
H    8.702987   35.584564   93.634514
H   94.624008   97.305679   75.748146
H   48.158768   95.848869   88.498901
H   67.106697   66.215492    5.728600
H    8.090890   46.470413   43.961159
H   40.701069   87.676292   43.554306
H   40.266632   21.992836   10.062702
H   85.368393   68.796715   58.434425
H    6.260934   85.980621    7.438789
H   47.912827   63.979965   10.884635
H    5.361676   88.712746   93.279030
H   83.069641   97.795403   72.381615
H    1.697113   52.883110   40.000172
H   72.951767   87.875229   32.767315
H   86.683548   84.109924   83.114059
H   44.299778   86.515289   78.695976
H   34.276184   77.093292   55.992798
H   23.737928   80.462891   84.538513
H   28.572186   36.120777   98.751625
H   71.719040   33.561974   62.307793
H   56.444386   34.900116    6.051597
H   77.217514   14.586945   91.374359
H    6.371837   89.153603   15.230206
H   43.251804   99.108955   93.884079
H   91.652878    7.601188   22.104038
H   88.486519   44.262756   79.964912
H   87.814354   44.586693    1.177671
H   35.206436   94.940369   32.990314
H   98.368423    8.496969   61.972229
H   39.563931   78.802727   21.013311
H   40.270500   14.435755   14.696829
H   92.972206    0.932965   16.837399
H    5.751298   22.789274   54.448738
H    1.804206    0.088513   15.155775
H   62.696495   92.218521   21.696388
H   34.621891   45.385185   70.287285
H    6.587583   62.672272   22.937901
H   84.659599   54.309994   52.985493
H   65.570747   51.474434   73.116318
H   79.638382   81.051331   52.361248
H   15.249041   37.037125   49.681194
H   48.188576   74.012131   19.519314
H    8.144678   41.183060   93.651398
H    0.157686   34.262764   16.108429
H   57.505653   24.149567   37.622059
H   56.746872   28.463177   63.345009
H   45.723019    6.502743   75.113304
H   47.216167   34.110363   92.344032
H   16.388697   53.553406   37.680874
H   15.420122   93.894089   58.926151
H   12.296550   99.762581   26.397982
H   45.557938   42.245312   60.506638
H   11.302559   99.927452   90.274162
H   85.980515   68.987534    9.377435
H   29.294235   69.292618   65.846313
H   60.629360   71.320862   95.450531
H   14.198874   40.585274   12.875422
H   65.450577    8.814592   75.701401
H   62.963703   50.031654    8.305591
H   23.486074   24.299065    6.554001
H   17.735178   98.014870   55.829063
H   35.334091   80.478722   96.800911
H   27.007521   51.371269   61.414337
H   81.089355   80.671989   14.513345
H   62.269386   84.141167    6.657553
H   31.476662   42.676666   15.802958
H   18.184658   46.036240   85.594994
H   90.232857    5.944232    4.280822
H   10.924697   44.172371   69.211205
H   57.959869   87.935692   16.462126
H   20.954367   48.915955   94.623207
H   25.879784   53.394405   23.563965
H   77.603340   80.143257   28.012976
