100
TIME:    9.885, STEP:  9885
H   48.839508   15.520368   90.096024
H   27.476257   40.518307    1.385154
H   49.684917   85.070717    7.304659
H   83.135773   25.389090   98.331314
H    6.621199   65.083328   97.683769
H   74.733032   90.498940   57.691185
H   34.897434   28.820704   63.473049
H   42.944794   43.779583    0.585128
H   10.635704   35.889587   77.862617
H    4.762194   58.318958   94.758461
H   80.776337   63.985519   87.573494
H   78.559044   19.174011   89.304314
H   13.416090   63.661613   42.763626
H   65.635437   74.607552    9.492252
H    0.669296   87.055908   75.529320
H    4.067678   47.150742   12.499246
H   29.214211   35.786476   73.258896
H   12.452155   13.834658   56.862488
H   99.231766   93.040115   84.151520
H   26.196941   95.894012   89.349388
H   77.686310   72.135750   88.946274
H   10.064926   57.206467   77.479233
H   53.762863   14.236418   49.531563
H    0.598450   55.081512   72.929108
H   76.040390    2.229683    9.538212
H    0.995765   34.693710   60.660183
H    9.683994   31.568563   96.097153
H   98.474586   17.838093   93.516960
H   26.111065   45.936314   89.903305
H   80.028145   46.185867   69.217781
H    5.091579    8.463306   27.309357
H   89.902359   79.398483   84.160133
H   66.644814   45.248428   88.315819
H   95.766327   67.821434   55.311790
H   34.945549   11.236732   26.464376
H   31.923010   59.671101   88.350258
H   27.899448   42.525642   87.364761
H   55.425022   78.056023   19.998459
H   27.822582   66.039574   86.382774
H   32.137257   86.782120   15.765489
H   59.681610   95.362137   75.230797
H   67.159737   80.371933   84.597649
H   96.357452   22.787003   15.477009
H   48.161716   78.568581   47.235416
H   99.181641   41.856327    1.985936
H   50.533409   51.452068   23.320261
H   18.975101   62.422688   20.358133
H   56.790951   97.182297   80.204971
H   53.976685   13.774826   50.156380
H   33.268898   81.198082   92.373604
H   46.323368   15.573402   52.254150
H   85.539764   46.484764   25.147223
H   13.907413   79.325317   28.766609
H   47.775093   45.922729   68.014046
H   53.736641   24.878698   84.412460
H    5.907515    2.135663   56.118057
H   22.918411    4.318708   96.133110
H   89.998734   43.371056   58.940453
H   69.890190   56.449074   52.614231
H    6.711672   87.581924   82.457680
H   83.257599   18.873270   43.690647
H   48.079948   35.933884   48.091347
H   45.177448   32.787582   55.644516
H   21.824966   95.610764   58.764702
H   24.674831   71.345039   16.115393
H   94.098999   50.860924   30.663202
H   94.475960   90.112396   44.310436
H   97.541039   82.870796   38.762772
H   49.570175   39.513275   40.263256
H   30.784180   45.141407   80.877701
H    8.129910   22.820415   43.579689
H   59.260445   23.380272   80.611725
H   62.472000   29.357763    8.296101
H   12.604435   23.799007   15.820566
H   38.640495   42.870388   50.788898
H   59.348236   41.108723   30.794579
H   64.551704   70.229172   66.057976
H   96.387306    4.373826   60.363136
H   35.534836   24.483356   27.974749
H   14.756108   70.536354   69.319679
H    4.330644   31.547220   70.796425
H   83.057945    8.584870   60.023705
H   43.121613   72.430458   71.341110
H   30.221653   58.040237   60.574440
H   71.014618   30.553932   89.514481
H   23.786823   72.148140   28.227757
H   27.351717   84.631813   94.898033
H   15.005646   14.069968   93.091110
H   60.826664   43.790901   47.344246
H   92.371887    2.578835   77.580368
H   28.558249    7.192083   42.215233
H    9.688799   38.925568   21.875193
H   19.100910   24.113707   83.426811
H   99.108559   12.619027   98.707726
H   85.684418   64.292610   43.231667
H   10.382110    5.384936   56.875839
H   77.977654   34.957458   68.692596
H   19.196970   75.569443   80.432762
H   37.814293   79.488014   17.064823
H   53.205780   24.970417   45.486919
