100
TIME:    3.496, STEP:  3496
H   80.902252    1.420393   95.945328
H    4.022058   94.291885   98.526688
H   39.847816   25.419926   82.303474
H   82.063400   88.614311   48.536114
H   63.857697   52.977322   70.913834
H   73.810799   97.420616   24.966345
H   69.743584   97.403435   63.844688
H   45.107590   91.050674   87.202751
H   67.689583   50.167282   80.026711
H   79.304680   66.580742   44.590515
H   75.065628    6.911740    2.997432
H   22.407547   98.927292   44.079582
H   20.882183   50.194580   77.654625
H   81.979698   94.300209   23.287014
H   23.025635   57.750412   82.723244
H   60.957977    5.956110   42.843117
H   42.979683   13.204680   91.643021
H   75.848839   24.690346   78.343445
H   99.720085   25.014490   47.544193
H   98.332634   31.574915   54.356560
H   56.819122    8.178917   62.352699
H   97.545273   48.724976   21.561554
H   39.067390   66.189476   32.326706
H   94.225197   78.610718   47.430706
H    4.547721    8.908379   62.358559
H   30.627752   23.440855   61.489960
H   60.615803   97.151688   69.338783
H   37.559605   19.621155   82.331230
H   87.187637   66.276443   91.915077
H   35.044662    4.313598   61.310486
H   53.646160   35.548756   32.786552
H   86.496864   55.918518   75.621834
H   16.610670   12.698463   12.744245
H   25.816032   53.335182   24.469692
H   93.869339   94.649193   37.609978
H   76.520927   59.115276    8.619321
H   15.111238   76.504379   83.936516
H   19.496490   94.969734   69.143440
H   97.504028    5.246508    5.524166
H   33.909557   84.899551   13.091864
H   96.325455   76.138809   24.709944
H   17.420616   68.762299   67.046280
H   41.353931   84.464417   53.992626
H   56.115631   71.363373   22.554625
H   53.402889   93.957947   55.273129
H   32.984432   29.597645   97.363503
H   69.047165   14.962026   59.022743
H   56.426121   31.377855   84.890617
H   67.218857   42.910385    5.016208
H   99.199303   83.950752   39.149227
H   43.277897   32.127686   90.278091
H   75.031937   39.336533   44.556660
H   81.394569   42.279724   99.826546
H   95.736046   50.167885   86.085846
H   62.436600   64.965271   30.081858
H   97.940506    8.857046   73.614716
H   17.883646   88.670921   88.486061
H   65.736809   46.733765   23.506874
H   65.997749   86.482864   43.093555
H   28.319023   96.501404   64.176033
H   80.230843   15.992562   41.819752
H   74.834740   95.401810   37.171867
H   11.403306   68.722343   93.739250
H   83.103874   60.811874   32.224232
H   71.086266   81.624580   21.136507
H   86.580452   68.476326   52.894608
H    7.077568   69.226196   35.849895
H   38.873238   17.477198   33.331615
H   31.142326   98.586075   40.969982
H    1.215873   23.980864   94.371552
H   11.018049   57.532082   20.211479
H   85.705856   35.499817   12.582068
H   79.045547   45.378963   72.112297
H   53.253323   28.145214   95.434166
H   30.728197   33.622433   66.418495
H    8.303243   31.633093   60.691875
H   84.369301   23.536255   52.877903
H   96.228760   22.125261    7.509885
H   29.158781   43.249874   56.689301
H   28.075020   18.553627   19.737564
H   79.290390   65.449387   88.936874
H    3.632544   67.059097   94.443726
H   38.990826   65.611816   62.876621
H   90.669418   11.319075   44.110855
H   82.102829   30.207638    8.854412
H   70.833557   37.468102   84.555969
H    0.644650   49.165245   90.246002
H   12.230959   25.395966   59.385475
H   28.236233   99.521049   99.598030
H   57.245937   65.442703   49.189987
H   67.093323   62.203953    7.290933
H   36.962242   58.423805    0.140539
H    9.554832   32.414474   89.355492
H   85.129463   25.290493   62.534584
H   96.145424   36.579449   96.422112
H   82.676834   57.677864   86.875847
H   85.106537   68.308891   36.131706
H   19.699316   46.004028    0.097381
H   42.171959   51.920177   52.210953
H   56.359745   88.920784   60.959854
