200
TIME:    0.302, STEP:   302
H   11.376311   62.269230   16.399738
H   28.516893   33.783295   92.414131
H   16.838181   71.851883   48.402031
H   19.932438   77.698433   42.878410
H   14.551873   85.300629   52.767090
H   87.601624   51.132217   63.714142
H    4.257491   55.260139   50.851421
H    4.278012   91.563690   22.871593
H   89.946373   86.576736   46.206928
H    8.678677   74.030418   93.626930
H   14.354738   95.918648   94.920929
H   31.034180   43.677711   15.696479
H   12.695888   89.065529   58.750603
H    1.473073   53.468517   45.253414
H   16.628466   72.421867   42.826042
H   27.493206   23.411808   52.985535
H   87.124069   10.622265   12.421852
H   35.089897   86.147552   42.416569
H   67.088272   27.457306   43.396530
H   90.253502   78.853233   35.067295
H   58.829140   79.853241   22.999973
H   88.648750   51.184212   68.185455
H   93.148598   62.090668   47.648552
H    9.921460   88.624443   91.391670
H    5.941300   15.197565   43.198025
H   18.609770   65.087708    4.908834
H    0.096301   60.040806   51.574692
H   95.933136   72.687065    0.894409
H   13.679914   54.645210   37.975319
H   90.247711   22.425245   96.481216
H   13.280546   54.039524   16.270615
H   30.798603   64.959457   95.129570
H   25.625237   10.319639   73.936462
H   94.374580   63.645561   39.373993
H   45.013126   87.239120   33.747486
H   31.036011   48.508324   80.187431
H   88.043976   73.090820   86.420387
H   29.848148   46.359097   12.379803
H   50.775620   44.180485   45.809784
H   89.488159   39.433529   61.274506
H   80.522758    2.327583    3.582195
H   16.425310   41.806786   37.992737
H   75.585526   86.357658   52.630482
H   37.143143   66.245155   20.965746
H   30.895319   78.186768   46.601311
H   40.187302   12.224958   43.362171
H   81.142517   23.174667   97.538475
H   88.606407   65.549660   45.418777
H   89.478119   26.399349   61.211033
H   59.898685   18.081297    3.089369
H   76.733353   69.711372   25.411617
H   18.768038   36.765118   64.874702
H   53.848663   92.647926    8.739343
H   21.483845   83.492081   82.621300
H   74.574570   75.006073   88.768211
H    4.510859   70.822670   80.678436
H    5.253544   16.980080   48.989521
H   68.086044   60.020695    4.184417
H   26.872900   75.675156    8.626025
H   41.669323   95.641029   65.848099
H   50.218719   14.166769   40.425064
H   91.050659   16.571756   49.541332
H   73.155396   26.490843   82.793213
H   25.628239   65.240791    5.051775
H   72.345032   77.003357   20.464884
H   36.307655   18.969873   33.977737
H   83.859230   21.854198   87.116066
H   96.994225   91.590889   88.499046
H   18.727835    6.691089   61.195061
H   44.880070   42.710606   50.979282
H   58.437965   77.664474   74.939758
H   30.398003   22.192152   44.330830
H   79.461563   26.734966   97.419662
H    9.885228    7.601905   62.377445
H   79.899979    1.875216   64.697479
H   54.880882   16.887691   62.472328
H   95.165527   32.258308   71.268593
H   24.258835    7.098925   45.847450
H   12.001926   32.455738   33.565273
H   67.341873   90.321167   91.321320
H   45.999523   29.054186    0.213327
H   29.362606   67.475334   85.940544
H   10.757821   14.346389   88.465675
H   22.652250   63.886971   95.872284
H   36.700386   99.979462   56.025154
H   26.413967   83.605042   26.492180
H   38.633987    2.913303    1.913460
H   74.815895   16.236822   13.780694
H   67.584274   72.204872   77.391960
H   23.133591   88.826164   54.183407
H   38.643799   35.428020   80.478714
H   83.623558   89.079437   99.720688
H   50.204967   16.162853   93.964035
H   57.247677   92.206184   70.807076
H   26.695927   56.087532   70.522011
H   66.704506   29.095490   26.146563
H   80.146629   12.134726    0.999422
H    5.190275   29.402138   49.180592
H   35.613029   69.156952   53.100967
H   68.282448   98.934921   27.265543
H   12.632424   82.140625   71.859291
H   92.877815   77.594574   65.522606
H   24.464598   34.904175   31.369301
H   24.855116   68.053955   92.624451
H   25.256552   26.657951   27.097645
H   89.877617   23.737379   40.988068
H   68.595299   30.866625   55.970688
H   64.386024   36.654861   16.344210
H   74.372200   39.307037    2.130604
H    6.358394   27.195940    5.840708
H   48.010269   95.528008    0.839472
H   88.483475   64.904480   91.217384
H   56.017204   80.994125   92.586784
H   63.014153   18.060703   73.355164
H   61.781258   84.550323   24.598766
H   11.508237    3.983507   81.731369
H   30.025822    9.315732   84.902878
H   40.456554   30.048183   32.739189
H   21.216928   60.041355   80.475418
H   72.418816   47.912289   51.655602
H   41.201668   22.171436   85.488197
H   15.613918   26.011295   50.011902
H   33.731148   19.207699   25.868380
H    3.163832   65.087578   15.150154
H   75.061180    7.417008   90.762581
H   49.993801   64.048920   24.334284
H   93.845528   49.479416   68.660324
H   74.072517   88.056236   35.526211
H   93.230705   50.239414   83.477348
H   70.750305   23.855480   67.557869
H   51.111717   82.971954    5.780712
H   79.320229   86.666306   10.789098
H   92.235298   85.611198   97.836349
H   97.880447   14.592607   50.470314
H    7.488934    0.249079   53.567871
H   60.706757    1.547279   82.768196
H   68.995361   86.722511   58.425133
H   91.747185   62.285107   82.218742
H   47.933807   45.200684   71.535423
H   43.481529    6.116334   93.734741
H   53.687099   61.245399   16.912689
H   54.384079   42.894638   47.692211
H   53.012421   57.902157   97.293015
H   54.872108   24.283321   79.151833
H   43.216228   67.710846   51.095921
H   48.211823   63.044052   26.876770
H   46.197624   96.506279   46.837963
H   40.959496   71.110817   68.469261
H   66.842743   62.203735   97.328110
H   11.438328   89.351692   87.676758
H   74.034859   62.362896   50.876141
H   36.397270    5.394197   46.209389
H   79.055984   29.520306    1.288001
H   11.548855    2.565863   74.420403
H   16.071072   55.516407   61.874985
H   65.342628   43.682636   55.968422
H   59.960247   62.742802   81.489914
H   46.927544   35.665131   11.176666
H    9.544201    1.500718    0.305725
H   62.984570   54.414093   80.620377
H   54.564964   81.890541   81.767403
H   40.693127   22.735001   35.006859
H   67.888145   31.866852   37.206272
H   13.550449   22.001034   68.546082
H   58.360542   24.192129   10.433739
H   12.981898   62.466557   61.962902
H   73.832222   96.564156   52.878963
H   23.686375   33.753433   50.576496
H   94.915413   27.968584   36.710533
H   29.302338    9.991836   89.705170
H   78.180542    6.371143   35.970871
H   44.021095   63.144348   57.648506
H   38.870872   74.790176   88.679520
H   70.461815   73.058044   75.680069
H   68.556213   94.570145   96.316185
H    2.821594   47.995750   23.346228
H   34.780819   54.857941   89.501549
H    2.279491    9.259987   65.672989
H   74.015999   19.938265   68.409698
H   83.351234   55.120171   87.259621
H   80.285873   87.411201   40.277763
H   20.478220   30.181728   71.879578
H   62.780827   90.101425    7.297139
H   52.830925   25.335165   79.471199
H   86.324738   85.645248   78.141403
H    0.558389   36.746933   84.264503
H   33.510864    3.462551    0.638868
H   87.442429   69.850777   27.695946
H    4.822903   61.449886   67.251999
H   50.741020   57.936047   66.486343
H   50.782101   28.973083   78.858711
H   47.144653   86.614105   23.834677
H    5.477646   18.999027   59.226463
H   34.020344   66.005508   34.562771
H   82.766953   51.486027   21.613476
H   75.479507   10.535582   28.716942
H    9.873401   87.249992    5.559430
H   27.107630   96.173958   45.218185
H   11.086526   11.785376   75.244209
H    7.361085   32.892284   96.887421
