100
TIME:    5.916, STEP:  5916
H   17.247576   79.494865   93.729752
H   37.088875   25.442884   51.128971
H   81.453003   99.525269   53.900608
H   82.469589   88.910431   15.886394
H   42.181976   46.950912    5.298857
H   36.280071   94.798851   64.628563
H   42.912350   60.815594   53.091984
H   54.900360    0.411886   65.007408
H    8.201363   17.494247   27.695406
H   13.174044    1.328471   39.353062
H   49.963120    4.285767   69.889671
H   30.043709   20.228886   71.821800
H   66.554672    3.837708   37.178154
H   62.155830   86.841103    7.449505
H   52.458687   41.586258   66.397369
H   63.654358   94.293922   41.961639
H   48.377632   73.267342   11.945166
H   27.577749    6.966171   94.446815
H   37.410854   26.536539   75.039062
H   33.129585   80.179237   19.121363
H   13.212883   67.261658   96.673912
H   29.553024   51.937561   15.476196
H    6.755673   46.507774   63.086746
H   69.377098    7.600802   67.700760
H   17.994324   16.991005   80.230873
H   19.577856   51.768631   34.103745
H   51.936157   96.555130   17.348448
H   33.367130   32.578575   62.326988
H   39.808891   85.837982   77.519928
H   27.838356   44.418877   53.693436
H   48.888130   52.554157   41.323845
H   39.297001   89.059662   51.590294
H   87.072258   35.639137   30.756956
H   28.067249   31.556541   22.519194
H   33.716446   11.715134   84.971405
H   86.905609   48.795448    0.826465
H   47.220093   87.878052   74.623024
H   19.474190   50.689587   39.916859
H   95.354980   52.516716   71.008003
H    5.972727   58.347950    3.492567
H   30.934433   59.173019   81.724098
H    1.645634   64.802734   81.981255
H   62.198811   98.976440   28.793304
H    1.588113   11.942770   59.170258
H   43.486370   98.478256   62.358501
H    1.760391   75.755478    7.195593
H   87.953415   46.570572   82.253319
H   56.555363   56.302856   34.626453
H   37.959930   42.486298    8.481536
H   49.954159   20.776655   69.890305
H   43.095371   98.491486   15.791291
H   92.639595   14.778522   85.687416
H   31.587788   56.311707   59.278210
H   39.689980   10.675862   92.873863
H   69.754173   77.055374   50.667393
H    0.964127    6.310665   91.232193
H   71.299522   18.843346   18.648415
H   85.538239   18.194426   61.172958
H   56.858147   88.734215   57.310143
H   68.622665   82.511642   95.345482
H   32.886951    3.451370   53.137165
H   88.947517   72.876785   27.673622
H   75.698448    3.585474   27.792572
H   49.281311   73.990082   66.523346
H   67.140900   88.343124   46.500599
H   37.916618   48.171135   95.983421
H   12.916603   52.892315   52.687027
H   71.707130   55.879856   49.021610
H   51.755978   24.700294   89.191162
H   50.241226   45.700279   89.275726
H   34.173820   92.876053   91.181526
H   86.165787   55.184479   89.763687
H   21.257183   25.676910   10.060112
H   99.977776   74.994591   51.644615
H   47.404598   37.075039   49.871231
H   65.519386   86.733086   97.858276
H    4.088996   13.786123   95.675453
H    9.924769   63.889107   41.158806
H   45.205830   36.141567   83.687401
H    9.399027   86.746803   11.252437
H   26.639063   90.485397   33.573948
H   85.224197   82.836914   92.067253
H   92.074516    6.055381   93.353104
H   57.160080   18.403957   23.082127
H   64.269096   78.836281   74.262573
H   15.132542   26.357880   52.608246
H   62.270988   73.211388    5.641194
H   51.174553   31.668989   34.238052
H   78.456650   64.778770   79.805550
H   43.284985   65.877609   35.700226
H   66.129753   92.878876   58.396893
H   16.022989   40.418716   46.248650
H   64.680481    5.027479   76.497940
H   19.026363   72.090034   25.705721
H   54.307961   19.810070   52.029087
H   82.558914   62.115143   61.879837
H   93.018394    7.187819   96.954468
H   26.858080   79.181503   60.115761
H   26.888306   62.351849   49.510773
H    6.677519   26.821087   27.833454
