100
TIME:    9.365, STEP:  9365
H   84.005524   63.206459   90.572098
H   41.837204   12.338810   68.599419
H   40.746624   47.659218   13.409319
H   83.048492   46.813042   26.834612
H   11.280775   23.403030   11.782654
H   82.794556   91.062294    6.192851
H   62.148716   93.707008   22.808376
H   83.815765   98.794144   48.331085
H   23.418297   85.885315   10.593458
H   18.967058   50.852528   74.398354
H   29.145538   43.062057   37.663246
H   98.403404   93.109825   26.317772
H   46.574738   95.138008   94.439850
H   91.383118   76.210335   69.921623
H   94.353279   33.504860    0.539006
H   24.977161   92.631699   55.664124
H   71.029396    1.393736   25.921247
H    1.331802   39.137917   74.888260
H   91.130569   71.227982   56.744778
H   40.205425    6.937670   53.945335
H    8.544094   23.902113    3.061719
H   60.212017   56.516159   21.761993
H   60.705956   18.463636   64.406860
H   48.914730   48.860809   11.547457
H   94.639023   43.469612    5.699863
H    3.448787   50.023300    9.593405
H   54.525230   53.186260   85.782211
H   42.350014   93.566254   76.330681
H   14.804198   98.758385   14.483585
H   60.088570   59.055740   27.878868
H   84.627586   61.832493   68.450104
H   57.069111   93.767990   32.299095
H   30.015160   83.294693   41.470116
H   73.795502   15.476208   77.219139
H   47.886833   50.608070   94.826340
H   86.721161   18.939619   89.984779
H   78.023926   61.568611   46.390644
H   76.918190   87.569572   83.303123
H   49.773571   77.370140   36.773987
H   81.114777   35.463272   74.854080
H   95.220551   77.517288   62.979824
H   10.982750   78.328018   58.059383
H   91.882355   19.666733   77.915977
H   81.361855   69.840553   96.394356
H   44.311287   62.409946   57.502064
H   57.242088   41.533855   21.207682
H   14.908900   34.139912   15.365179
H   56.759212   91.826462   48.030293
H   38.777672   56.840054   70.902008
H   22.354895   73.279381   28.731705
H   43.427250   65.557106   51.278198
H   60.268154   94.736328   59.282143
H    3.121377   76.310181   58.969337
H   59.815804   54.408752   45.067268
H   95.139229   79.309036   79.992905
H    5.259855    2.682652   73.820084
H   89.952576   19.323631   46.676933
H   28.718370   92.478111   72.334007
H   28.876553   34.474281   92.534187
H   41.024990   47.613865   97.247719
H   50.454449   43.054951   84.230354
H   66.535759   40.773972   71.620033
H    9.850085   68.232201   91.284302
H   86.117859   92.778122   72.881775
H    4.035029   12.875729   67.690300
H   26.042339   76.711754   99.916252
H   36.197433   72.132660   19.204445
H   33.461273   53.132027   13.903763
H   23.651903   76.877167   72.877228
H   20.223267   19.024767   81.980606
H   24.644207   58.204632   49.816261
H    2.082742   40.645897   42.496288
H   96.376419   55.077877   21.630146
H   24.050053   56.708134   46.716743
H   13.592515   42.104702   11.362137
H   47.053619    7.781001   65.782333
H   17.324524   15.235325   56.834923
H   71.956764   38.373512   31.643959
H   10.600232   26.010761   22.170610
H   40.256523   98.862770   14.118015
H   94.150993   26.167582   39.716713
H   44.037758    5.209121    3.528397
H   10.230165   63.734165   21.818081
H   94.446358   13.542398    8.069899
H   96.333832   63.081703   39.921860
H   35.756123   53.047356   92.117111
H   92.622017   22.440376   70.102501
H    6.643520   55.679665   98.478683
H   50.035648   72.744148   51.597176
H   38.347042   23.974403   58.990738
H    7.277325   79.112427   31.233788
H   71.214066   99.817368   11.968881
H   85.768143    8.510374   43.214409
H   51.786781   81.292648   59.138027
H   94.674286   10.869389   31.282324
H   67.432190   25.918070   83.734360
H   19.252743    5.116964   98.597992
H   20.200693   49.839817   90.874657
H   62.586021   77.242531   60.621647
H   20.908112   38.313442   95.579330
