100
TIME:    9.057, STEP:  9057
H    4.834462   91.451698   90.854080
H   50.343674   95.648712   49.178432
H   35.452404   25.500443   17.024990
H   82.996796   59.502251   43.717949
H   14.040678   98.715744   20.133156
H   87.569458   91.395973   75.691498
H   78.291939   72.910805   98.722359
H    8.023956   72.146805   76.610527
H   30.989525   15.498546   29.980925
H   27.380709   46.430103   62.338905
H   57.794952   30.669056   67.332497
H   10.159401   77.671288   48.241600
H   66.214813   13.780432   25.048012
H    6.633407   77.159676   46.482426
H   90.612312   61.016945   15.350281
H   37.361557   19.570763   81.230530
H   95.796852   81.020638   97.882790
H   94.743271   54.125282   85.565994
H   86.332169   58.307453   40.519039
H   48.502758   13.478487   32.975243
H   26.821495   54.565041   11.422068
H   30.683756   56.107285   47.991058
H   64.818199   20.967405   73.218811
H   77.532486   45.176239   34.422344
H    5.654794   67.895966    3.426342
H    4.901640   59.103134   38.577938
H   81.084114   65.990250   79.672592
H   68.337433   79.189850   66.151115
H    8.106528   70.813927   29.042103
H   48.278206   66.678665    3.394518
H   72.507042   34.214664   92.818085
H   37.621723    2.278612   60.812218
H    8.319170    5.829546   13.723042
H   60.782013   43.702637   90.195030
H   55.552055   73.928017   76.088608
H   59.946934   94.815079   90.952919
H   48.482803   72.847908   22.121359
H   89.649696   93.204521   61.567238
H   62.775311   84.081322   66.621826
H   10.125639   64.298302   50.621094
H   16.269739   66.947647   55.723476
H   36.939346   77.120193   42.336514
H   89.231720   17.818573   55.668446
H    1.025545   64.670876   66.278633
H   71.027390   74.558998   31.143797
H   61.215691   35.659222   19.956385
H   12.500888   17.388830   12.407301
H   56.740414   88.654160   28.972980
H   29.775383   82.349403   83.187042
H   15.890438   68.589073   50.267933
H   42.879696   95.248207   48.903610
H   45.299587   23.316273   79.500282
H   96.733665   74.524292   76.856979
H   66.948578   59.435089   31.475761
H   19.663143   52.317604   77.375168
H    4.876242    3.006639   84.305130
H   70.425293   28.210777   17.383657
H   51.652771   21.565397   80.267113
H    4.584901   21.459394   16.179216
H   61.348873   23.939091    6.007957
H   31.023569   57.377308    8.241867
H   77.467278   43.640793   85.554665
H   88.940445   89.249290   12.404785
H   64.969177   91.100327   81.242554
H   91.810669   37.476345   39.007984
H   44.962990   92.023399   81.704887
H   60.908493   61.483677    4.333469
H   54.736847   35.517525   99.179581
H    8.300604   99.008087   92.193024
H   13.967956    3.555208   82.633865
H   34.425762   79.161278   53.510231
H   27.445574   50.872459   19.920616
H   16.458618   70.312950   29.528004
H   30.829380   76.201637   65.017403
H   98.756607   41.651180   88.009552
H   39.771423   88.041740   86.508041
H   89.351395   41.894413   51.371513
H   57.487423   58.511757   14.633368
H   95.830437   26.915455   18.732775
H   55.361382   15.641407   40.652519
H   88.121269   22.981180   21.307961
H   20.926384    3.209689   29.295668
H   90.749153   58.583286   92.485542
H   73.255379   87.186134   36.200161
H   11.330597   82.350388   69.779099
H   42.845631   41.732811   70.728745
H   72.051399   44.834480   55.415916
H    1.690387   80.324928    1.670984
H   43.644047   89.893379   54.116219
H   65.579361   36.647163   47.981674
H   94.672417   62.480381   24.729393
H   48.425182   76.652512    6.101202
H   66.024673   99.268639   19.396296
H   22.589502   62.650623   37.497128
H   99.999054   38.459019   24.205740
H   41.992676   38.080322   99.642868
H   43.700005   87.441536   16.311741
H   20.795206   34.601017   97.059471
H   77.258507   75.912514   86.418648
H    1.777518   46.216000   25.250286
