100
TIME:    8.445, STEP:  8445
H   46.220940   47.574272   91.414383
H   67.246140   62.487919   10.588878
H   24.932718   81.471313   24.208538
H   82.894073   84.715874   77.264229
H   19.524641   49.661243   36.725784
H   97.057251   92.058998   15.082301
H   10.368285   31.584818   50.863163
H   56.125946   19.202143   32.801949
H   46.033653   74.340317   68.505737
H   44.097054   37.642689   38.376625
H   14.721695    6.045567   26.284700
H   33.519356   46.994717   91.805138
H    5.240007   50.821182   85.866150
H   36.934853   79.046028   99.907295
H   83.178963   15.683792   44.780182
H   61.968185   73.098351   32.032501
H   45.010414   40.541470   42.170021
H   81.654602   83.905373    6.781815
H   76.797684   32.631580    8.278285
H   64.989944   26.475176   91.307503
H   63.138451   15.490482   28.032785
H   72.010719   55.294846    0.108547
H   72.989281   25.942427   90.728271
H   34.395409   37.854950   79.875275
H   27.542171   16.429108   98.908180
H    7.788366   77.144882   96.169785
H   33.856888   91.427994   67.532700
H   19.977400   50.623753   45.920013
H   94.798897   15.288618   57.972160
H   24.811573   81.825516   54.741699
H   48.420345   79.334831   41.237556
H   98.979881   19.186497   17.468086
H   65.212540   50.605736   58.589249
H   34.924042   99.788940   15.976992
H   70.782951   20.264977   38.853336
H    6.747297   46.879509   92.876625
H   89.784416   95.260017   73.898338
H   14.945328    4.402718   18.381905
H   88.605492   97.416527   25.928867
H   67.767975   21.590460    2.469174
H   58.095459   45.949646   41.305019
H   88.515213   74.720230   11.093404
H   83.964874   14.146845   11.465107
H   40.101910   54.394295    6.442790
H   24.114925   98.698708   78.772514
H   69.114311   23.987850   17.470041
H    7.716101   84.105598    6.530105
H   56.703060   82.350754   91.106316
H   11.887718   33.035149    7.598612
H    3.044331   59.271740   93.057884
H   42.921719   54.333397   42.450790
H   15.555576   80.105942   19.674759
H   84.042809   70.975708   12.399660
H   81.124237   69.419952    4.471503
H   68.391396   98.683792   72.173691
H    4.113997    3.650403    5.139069
H   31.628227   45.869652   59.177238
H   97.224060   79.361046   96.030296
H   56.315014   95.599312   63.164482
H    1.736899   76.899384   23.414696
H   92.417313   85.839600   55.956425
H   99.188347   49.337204   13.244600
H   47.392132   31.011816   54.371460
H   22.942417   87.766525   97.855530
H   67.521545   86.355957   82.014801
H   82.559303   22.447227   45.518665
H   10.010092   40.327579   74.786545
H   97.011688    0.515281   69.922440
H   77.800385   42.982491   30.577019
H    1.538328   72.813675   83.931900
H   53.863598   20.802639   60.850197
H   77.841629   71.192772   75.060410
H   56.361511    0.587919   45.221149
H   44.299992   14.936222    1.380980
H   69.275345   40.750027   41.607151
H   25.301607   48.818741   27.688360
H   33.769363   94.863647   40.515648
H   28.738958   98.526711   80.830322
H   66.479912   28.713093   11.902451
H   85.374931   48.980553   93.377007
H   76.140129   16.649759   84.729050
H   75.001602   99.237579   80.494957
H   52.040131   48.348423   34.202335
H   31.152222   34.816505   92.097374
H   41.129364   20.635685   29.104980
H   56.932575   19.251987   28.229782
H   31.177309   89.331856   26.233482
H   91.847862   29.296501    8.016502
H   30.943657   23.967997   59.121590
H   19.687105   61.828102   26.105894
H   69.626884   29.436527   11.805076
H    3.143381   30.623711   94.439796
H   26.794147   80.909386   72.069397
H   63.441223   25.521229   96.232216
H   10.581356   93.277481   10.143990
H   91.443939   62.248047   31.253868
H   92.278252   52.319893   51.509132
H   21.976511    4.319263    9.346998
H    6.412790   73.269753   37.680424
H   63.761166   61.918484   84.206543
