100
TIME:    3.138, STEP:  3138
H    5.112489   34.250664   96.273087
H   13.981009   74.883102   75.944107
H   33.694145   99.664871   86.504250
H   82.003311    3.363764   68.160095
H   67.064270   24.282040   80.620956
H   79.360847   97.808464   89.512505
H   88.507774   73.231224   35.848625
H   73.245682   60.077816   20.072834
H   76.489906   84.587418    2.560356
H   89.088280   61.440392   30.570635
H    8.365906   92.506943   37.481533
H   36.072357   80.982498   69.562828
H   43.653893   71.853973   13.237598
H   99.705986   95.403664   96.042488
H   18.670540   89.728745   99.930580
H   75.352051   37.268219   72.559914
H   71.767830   89.525269   59.052868
H   68.201134   42.099800   90.754578
H   94.142723    9.994945   28.684404
H    7.977402   39.176266   29.982233
H   78.063354   43.819954   72.070282
H   63.223465   48.249725   52.048584
H   43.847206   69.101067   42.569168
H   27.487335   74.317078   74.019112
H   17.351410   37.300484   59.714638
H   32.270420   34.107769   95.046791
H   91.485519   12.033446   62.236668
H   67.765648    2.910930   70.499138
H   79.403366   33.795547    8.837770
H   21.318096   13.174693   32.850098
H   39.555264    3.446564   61.110374
H   63.892433   65.809135    8.763649
H   91.393768   38.890846   80.492775
H   10.688838   86.143837   39.551376
H    2.768272   21.711548   15.811287
H   45.391415   30.990889    9.853097
H   80.773720   89.614731   55.727413
H   34.292068    1.520027   43.880878
H   12.615556   13.045801   40.216415
H   67.628036   18.413961   84.925819
H   20.791594   63.853352   16.275618
H   49.595604   52.694733   50.226791
H   38.270267   82.317596   28.134983
H   78.976807   65.365387   87.550865
H   84.457100    8.083139   24.638277
H   37.603100   22.769337   95.910439
H   66.250290   95.492218   55.584007
H   56.407001   27.691935   62.739586
H   56.754318   72.559685   19.297457
H   91.693626   78.504494   64.187286
H   43.305210   66.689850   86.503403
H   57.633411   72.556915   68.059227
H   73.970833   40.203918   20.618759
H    4.027020   56.010185   70.287872
H   90.940689   33.590477   27.037798
H   97.492569    9.233969   85.801880
H   95.188026   99.000786   54.437386
H   92.394524   80.542084   32.729080
H   37.763870   71.356796   70.578209
H   51.942238   68.986053   74.358406
H   57.648262   32.640713   69.731705
H   87.540855   98.734024   53.371346
H   87.099327   93.151299   18.288406
H   58.521355   58.864441   41.945011
H   56.876553   10.216712   87.797112
H    8.572901   86.273628   31.726871
H   35.801338   56.849415   18.565020
H   63.602638   97.002136   16.217146
H   13.298695   24.309654   63.424191
H   93.961731    5.974274   95.125397
H   22.386883   81.890022   24.506485
H   15.225011   47.381073   86.371613
H    2.387558   63.086132   81.289543
H   61.134861   50.801308   16.707878
H   13.467700   33.111675   39.280064
H   99.839348    8.688612   84.781769
H   51.865536   54.566444   46.546696
H   79.409271   45.534855   87.739700
H   11.992255   44.301434   52.693375
H   45.631966   38.051601   50.579666
H   72.287277   61.745708   67.539688
H   76.772415   64.721085   24.380121
H   16.339964   59.635681   28.778782
H   66.038345   80.684296   76.808594
H   99.534134   52.601757   43.558464
H   79.071228   24.317577   59.695461
H   76.734642   75.194756   73.175232
H    6.469233   54.058472   63.108269
H   20.805668   19.453428    2.526841
H   88.897095   80.169998   36.393738
H   52.442505   42.874378   99.730545
H   10.472103   31.501154   93.317711
H   86.606567   21.672178   61.670799
H   50.527996    3.575042   38.397881
H    2.335018   68.647522   88.195366
H   53.107529   71.815193    5.367100
H   13.522878   47.763882   56.720421
H   18.385550   42.955872    5.825676
H   59.226341   50.376980   82.196495
H   34.124043   98.108955   95.445786
