100
TIME:    0.440, STEP:   440
H   87.567299   81.671120   98.743179
H   89.030800   28.600815    5.755496
H   87.324249    5.559548   18.173546
H   81.550461   14.521933   16.045019
H   91.230011    8.025460   53.774803
H   21.193367    0.734764   22.319971
H   29.910534   91.048119   24.861345
H   85.303162   26.667706   67.795601
H   42.811958   43.989243   72.391609
H   62.816078   22.703575   24.919596
H   59.327301   83.946976   97.366722
H   39.047405   45.745522   61.609276
H   15.274341   35.086899   81.396233
H   33.295612    3.720646   90.723824
H   85.854103   30.720915   29.621538
H   83.832336   73.252327   96.516098
H   88.691216   11.094894   13.416017
H   10.547042   73.303406   84.292282
H   52.115799   96.810425   86.543762
H   80.738991   96.306641   46.205711
H   38.166321   12.413521   45.300278
H    4.537847   44.680687   81.790657
H   79.869392   91.043724   19.761139
H   78.160751   41.958866   74.397293
H   13.846857   51.279209   39.807693
H   44.641468   14.499040   47.931908
H   24.136705   24.186359    8.697409
H   95.415459   76.976898   81.318741
H   20.738663   89.012444   36.372589
H   17.865156   79.949753   18.367287
H   33.410099   61.499580   74.593987
H   93.539337   40.354454   58.531075
H    1.350144   36.289284   37.435631
H   96.692848   33.399231   53.214500
H   69.834938   25.659683   51.520485
H   10.811234   19.049982   19.130354
H   22.001072   88.421730   43.135509
H   45.803543   50.900967   53.490032
H   30.939075   71.115288   99.954147
H   21.750694   70.992592   72.653191
H    5.173389   71.276894   52.707081
H   92.076469   31.605066   23.471945
H   15.031028   66.138489   33.255058
H   51.262192   20.145422   23.752769
H   18.489082   14.531638   93.759094
H   72.331932   71.475639   85.043755
H   40.726063   49.477238   31.383001
H   56.262913   99.913498   95.802673
H   77.890617   96.009079   26.921797
H   35.117992   37.446476   52.889778
H   43.511051   27.164686   58.056171
H   26.515589   22.909897   45.177391
H   18.006319   24.559998   77.316261
H   66.498962    0.022758   51.232136
H    5.730555   97.077209    4.139742
H   94.116776   12.069525   77.648163
H   24.146126   76.850868   97.834999
H   93.295593   35.334312    2.221197
H   24.978943   57.359802   77.705032
H   29.983231   61.608833   51.094933
H   87.455948   58.107399   80.089508
H   83.294678   23.849899   75.447174
H    4.077248   77.148689    3.372236
H   73.254158   44.187973   15.193731
H   49.787300   25.701767   36.537399
H   74.315498   20.399403   72.202095
H   52.266808   63.572025   88.305038
H   49.972023   42.701645   87.237144
H   78.832359   18.170723   32.636456
H   39.299644   70.275536    0.805511
H    8.059835   65.467033   56.870304
H   37.687092   36.922859   88.836372
H   78.302780   96.543465   50.467091
H   20.506210   21.535295   77.058098
H   83.385666   29.269766   34.753345
H   36.060772   35.772301   66.321976
H    6.903739   88.408318   98.819519
H   52.652328   21.949863   38.740055
H   82.643150   52.213634   22.594612
H   77.947067   84.991341   83.014832
H   19.492275   33.833660    6.286696
H   74.337318   47.101089   49.987183
H   45.635784   14.601474   71.807709
H   80.438080   49.812962   23.241005
H   30.905813   21.361160    5.099439
H   41.166210   25.215775   72.338158
H   96.541313   71.361336   44.524044
H   63.038300   70.066566   91.165657
H   64.814156   69.673698   24.600792
H   27.434227   91.181442   39.941662
H   42.029179   97.190887   42.753735
H   10.842367   28.597944   41.907463
H   13.515251   40.814606   52.954521
H   89.755226   39.921982   56.484577
H   48.984837   10.316479   26.197002
H   30.263809   78.356194   44.722450
H   27.676989   92.931236   11.884148
H    8.480689   19.984009   48.995575
H   87.751579   38.746960    8.195698
H   66.566971   67.402885   55.307846
