200
TIME:    0.759, STEP:   759
H   25.418871   60.752544   24.214155
H   32.590027   40.454967   10.966852
H    7.259909   91.854698   70.911736
H   35.337067   83.039955   30.927975
H    9.699787   96.883224   46.196529
H   72.734619   38.728519   50.187748
H   10.878608   54.935883   59.697010
H   14.519126   11.297061    6.650265
H    8.505230   79.725502   35.058418
H   92.591431   67.628906   75.601036
H   30.283468    5.680933    9.362556
H   32.923935   55.875698   37.471600
H   23.912388    4.232810   40.020409
H   79.873260   55.396626   67.274986
H   94.564651   75.939880   41.701603
H   14.172584    4.582245   43.127079
H    8.621968   32.025833   90.233406
H   24.238375    8.117308   34.280510
H   82.293480   10.912494   50.123989
H   91.707428   72.577293   17.351711
H   64.313614    2.666203    2.063021
H   78.474754   68.652245   50.574471
H   79.463562   58.767906   36.683090
H   19.601225   92.790970   89.958664
H   25.804848   33.577374   26.891041
H   18.231470   85.369453   89.815201
H    8.946526   69.210655   69.949249
H    6.421492   91.539291    2.096909
H   32.927872   40.754463   35.299328
H   69.596382   34.667877   80.672821
H   12.683896   73.132332   16.829348
H   22.488213   75.670395    6.381268
H   14.583069   20.153069   79.518562
H   79.249565   64.144150   47.361870
H   23.081848   68.355515   30.270878
H   16.107990   38.088520   85.427841
H    1.160646   63.227135   89.851234
H    7.243271   58.180527   91.832527
H   33.861961   27.816195   55.968090
H   85.105461   37.554234   43.422943
H   80.658737   80.979012   18.751087
H   39.172104   32.223774   24.441450
H   67.357071   75.859406   69.599930
H   36.125046   88.441063   37.309929
H   46.510143   92.129814   63.093086
H   33.756207    0.331589   48.332367
H   89.754501    0.785026    7.557900
H   77.480560   65.542686   28.989761
H    7.151951    9.057010   61.540520
H   43.544632   20.143641   83.755806
H   65.862030   63.927048    7.300502
H    1.298627   44.630962   74.700035
H   66.175133   79.579819   14.710639
H   14.682210   93.136108   89.388855
H   55.230728   64.842537   73.988373
H   98.652641   59.563641   95.643066
H    3.949329   18.709450   44.087315
H   73.078903   70.644463   95.935585
H   17.229744   84.503311   19.678944
H   31.099594   93.074867   57.399986
H   48.738644    5.250576   27.072680
H   99.264488   17.654356   53.044983
H   85.745628   35.957558   67.375320
H   36.701286   65.892792   15.255344
H   79.691368   83.816238   39.152699
H   18.380466   36.724449   42.192245
H   66.788673   12.214357   96.557869
H   94.435036   92.629906   97.546860
H   34.983231   12.866788   55.410736
H   42.249405   50.675819   50.954876
H   58.237484   85.568672   87.163895
H   17.554117   10.180040   41.131844
H   93.965958   34.635677   82.116829
H   24.773846   97.556763   75.682228
H   85.464645    9.272981   43.209358
H   66.432098    0.753610   59.486027
H   93.233932   49.271336   64.804375
H    7.332317   15.420647   30.220360
H   15.477303   52.814873   23.440022
H   60.454872   87.772438   69.648407
H   65.395660   21.330421   93.428391
H   49.457703   59.256332   71.812706
H    8.974844   19.359295   75.094437
H    7.749512   78.830681   10.766771
H   20.426525    4.812068   43.074055
H   39.288738   67.615341   16.978901
H   59.116215    3.865590    2.961188
H   71.015465   99.227798   31.017736
H   81.571518   73.320427   79.039856
H   20.844616    9.310725   49.155682
H   19.487062   39.373146   78.446007
H   80.440262   93.089066    9.692295
H   71.915123   11.008738   80.948433
H   36.754990   75.787628   83.355469
H   38.275436   49.905731   89.555542
H   47.779060   39.313068    4.659484
H   86.345863   96.327583   20.681198
H   92.627579   36.502987   53.507504
H   25.257729   64.579002   54.720509
H   76.228485    6.360507   27.377115
H   33.022182   94.776184   93.378792
H    9.870914   84.508568   63.001770
H   33.937782   18.202480   37.755157
H   46.814217   68.897720   10.772912
H   24.650749   20.652225   41.914093
H    7.970230    1.362780   19.591835
H   90.243805   36.541122   53.843842
H   61.692848   54.201344   98.672829
H   85.986176   33.538403   24.228886
H   21.038862   20.824118    8.077383
H   54.022968   91.556732    1.161005
H    6.833163   76.396423   96.422928
H   48.079884   86.297295   82.646393
H   61.466087    8.208349   61.570705
H   46.530724    3.580268    8.574869
H   92.857986   90.615257    2.347898
H   11.236244   15.750750   90.230453
H   38.137943   52.542198   23.604210
H   38.572186   77.199074   57.889481
H   84.479080   57.033321   68.703979
H   45.971382   25.208294   70.513107
H   95.895714   15.185299   63.454617
H   44.748909   99.933243   39.425758
H   96.430901   48.642757   95.137291
H   61.386604   96.102203   75.648026
H   66.736610   76.551987   15.510462
H   82.486076   51.613235   51.010986
H   64.076340   91.640495   39.385914
H   98.854645   33.697083   73.062775
H   92.900887   21.689409   75.343521
H   69.559494   66.654510   23.245258
H   61.778976   91.198929   21.566280
H   90.743019    7.845150    1.236225
H   75.471855   26.309563   56.094608
H   30.065044   91.985764   32.567879
H   48.534920    0.960762   76.035507
H   69.751961   87.887047   81.175415
H   95.645241   48.016060   74.997925
H   59.879013   51.591682   71.427338
H   43.729080   84.198982   81.036423
H   76.311867   47.806171   31.675095
H   33.345734   56.780155   58.345619
H   38.321491   66.313179   81.878609
H   33.931389    7.740743   86.724800
H   64.697380   52.554451   66.039627
H   64.956482   70.917084    4.989399
H   57.006187   94.504951   43.565758
H   28.480835   54.099533   65.847313
H   79.059906   43.123135   92.785027
H   26.006216   94.341064   70.574821
H   57.927273   70.124146   47.426117
H   55.634769   92.748611   31.888042
H    0.286099   12.432316   85.245872
H   23.629328   13.055722   63.127060
H   34.192848   67.585907   70.142242
H   78.909119   44.815792   70.029015
H   64.743912   76.448601   86.901169
H   53.424885   28.332741   21.883245
H   88.628006   99.778717   83.357224
H   57.860962   35.767578   98.158142
H   59.054005   63.324219   69.616486
H   19.235867   20.366705   31.047787
H   87.559731   11.941614   37.016251
H   30.325451   35.426315   48.994381
H   53.984818   39.698933   14.924087
H   20.855589   47.925552   59.464729
H   65.962891   89.172493   57.723640
H   24.085594   54.545971   69.474045
H    1.125337   26.482407   35.631420
H   50.157635    6.543119   84.558899
H   69.450012   11.805932   35.932518
H   28.233410   46.169674   59.051876
H   47.700771   55.152672   75.820816
H   64.835052   62.124432   86.280586
H   47.315643   91.132324   74.828064
H   16.930199   50.465496   23.788219
H   30.086067   69.134590    8.617992
H    6.329823    9.695816   71.516586
H   62.328552    9.314219   63.064995
H   61.612270   60.022377   93.706406
H   71.942360    3.788145   29.652441
H   29.696007   30.739590   88.563118
H   41.738106   89.619560   16.349342
H   62.783474   26.180702   96.283745
H   92.234581   65.823738   76.258621
H   10.125443   40.603149   86.551735
H   49.423859   95.634811   10.764957
H   65.487099   89.208565   43.687153
H   91.587959   63.487823   72.474976
H   59.051411   55.450077   72.260208
H   72.612968   13.853298   75.595222
H   43.398266   99.033493   18.013742
H   15.628597   29.871222   69.696030
H   26.036606   84.244087   43.772713
H   67.084076   31.073572   20.118582
H   76.595230   11.656970   22.455820
H   12.911130   99.711220   20.984297
H   13.826100   87.091278   32.329845
H    4.992327   13.064098   54.805565
H    2.594607   17.409067   90.538261
