100
TIME:    4.088, STEP:  4088
H   40.867096   47.130859   95.403336
H   87.575325   26.386156   35.867081
H   50.023720   68.011131   75.356941
H   82.162766   64.224663   16.085440
H   58.555206    0.428733   54.861832
H   64.633064   96.779259   83.594566
H   38.718212   37.379238   10.139932
H   98.577553   42.265499   32.847378
H   53.137093   93.248764   42.762173
H   63.126213   75.080986   67.773499
H   19.999222   30.731892   45.972385
H   99.811058   28.600763    1.941233
H   83.203445   14.380608   18.817947
H   52.666954   92.475502   68.339676
H   30.227356    4.870996   54.267109
H   37.155487   54.177666   93.701111
H   95.374397   52.359180   45.535118
H   88.495323   95.901054   57.818645
H    8.940331   49.851280   78.733459
H   82.379997   19.002954   94.662712
H   21.688995   49.244595   46.287148
H   54.300888   49.510864   71.147324
H   31.163338   61.374779   15.387275
H   39.222023   85.710815    3.461857
H   83.374176   61.961761   66.730629
H   27.910959    5.802003    6.002169
H    9.565649   72.545242   81.081947
H   87.608307   47.253723    1.897475
H    0.059955   19.987347   63.930214
H   57.745102   89.661430    8.373150
H   76.944801   88.634468   85.949394
H   23.875868   39.563904   20.817390
H   58.311619   69.384819   66.076279
H   50.829529   99.082031   99.531090
H   79.154251   49.898705   73.658188
H   28.000013    5.618833    6.576418
H   71.890732   54.824692   30.583609
H   95.028419   84.138924   10.921017
H   72.518188   92.348015   48.154472
H   78.149071   29.478138   59.670658
H   55.865738   96.454483   38.657207
H   64.214981   95.328949   94.859512
H   46.453175   88.014465   96.754753
H   18.312494   81.281830   80.437378
H    2.052328   70.598083    5.931598
H   25.346859   40.889149   99.766335
H   73.672165   47.157555   64.708580
H   56.457737   37.475037   21.520164
H   84.526474   93.882050   81.402740
H   11.615138   92.956856   97.745216
H   43.232731   74.973366   96.520035
H    3.802393   84.403625    5.691337
H   93.670692   45.712341   65.446175
H   82.023643   40.506874   12.208827
H   15.301363   16.850542   35.117008
H   98.681229    8.233755   53.461639
H   55.412090   71.589134   44.790321
H   21.654778   90.826225    8.257143
H   12.689161   11.496492   97.644814
H   89.253235   42.005810   47.338142
H   17.574690   88.461327   95.663795
H   53.823509   89.891556   10.384141
H   51.595387   28.325653   53.144035
H   23.754694   64.032257   16.149647
H   94.581627   34.341961   76.266594
H   50.212776   39.046150   87.898270
H   59.580704   89.695435   64.430954
H   97.979485   51.334610   61.632641
H   60.649284   56.048721    3.839369
H   13.209642   53.758209   93.124969
H   92.219292   17.252201   13.109123
H   36.892937   15.852592   55.926884
H   40.446671   16.097836   56.934410
H   40.218410   90.682701   60.258873
H   59.268703   34.467037   11.295920
H   22.299570   69.576378   20.859333
H   38.118782   72.226608   63.347385
H   24.042004   83.416603   40.205276
H   57.545624   41.510983   63.297089
H   99.041840   86.312798   68.736382
H   90.870956   71.573898   24.318861
H   48.053009   70.925308   44.941772
H   76.445503   75.494141   19.261791
H   31.398390   61.978096   90.041519
H   53.277878   93.177315   51.466629
H   57.209232   59.215538   25.666489
H   40.183006    6.122032   18.475279
H   21.758730   77.999153   53.229347
H   40.522079   66.558891   94.756233
H    4.903972   41.084938   70.351624
H   91.320374   94.172203   19.792887
H   80.767029    2.940236   11.421566
H   47.502174   50.178268   35.135845
H   42.348858   61.201569    2.451969
H   85.910805   83.551506   10.025279
H   31.573654   34.299934   56.298454
H   38.115814    2.282694    2.084040
H   21.871801   51.044556   90.621590
H   13.970299   54.472057    2.623184
H   93.132973   73.726936    3.929599
