100
TIME:    1.724, STEP:  1724
H    0.735722   63.921738   97.567642
H   53.314064   98.216942   86.749687
H    9.388861   97.936043    3.097613
H   81.765976   61.621422   45.665409
H   79.729340   10.943715   18.959835
H    1.282366   99.340355   49.479618
H   62.613857   77.750862   25.271904
H   84.383293   37.749630   49.902657
H   11.248787   20.537949   91.567131
H   27.726892   41.137444   75.201012
H   39.892746   35.611225   73.684448
H   90.039337   10.105803   70.212898
H   33.599014   57.403008   53.776810
H   69.719261   99.762001   88.436943
H    1.469544   16.032684   67.902878
H   32.206665   60.943512   89.934341
H   85.460449   96.007858   30.321142
H   37.985550   10.862591   39.778610
H   72.113701   50.678650   54.188190
H   46.069702   69.201035   33.710548
H   61.972031   84.587708   10.452370
H   27.656315   46.375420   72.460243
H   62.726143   80.601036   83.024033
H   58.863243   57.358402   79.035400
H   67.923820   49.444832   49.282120
H   38.753986   76.237900   27.582148
H   13.415962   70.814163   34.177174
H   87.075821   36.910198   23.758192
H   48.657669    5.507007   75.678123
H   67.099159   48.171066   20.441528
H   83.919014   76.644714   72.989868
H   74.611633    4.881962   39.664742
H   91.793655   42.345848   53.108490
H   50.944603   15.728285   99.122513
H   37.919106   28.599098   29.708023
H   22.449970   19.912737   14.713075
H   45.152840   41.400246   44.309696
H   92.735771   27.400021   44.098782
H   73.217026   43.705681   76.890167
H    0.812289   50.788601   73.675674
H   17.425323   15.338027   82.961227
H   76.677887   89.231483   83.796585
H   26.090658   73.838257   25.999996
H   69.270271   41.664848   49.297215
H    7.111691   63.868084    3.637083
H   55.845547   95.799446   90.171242
H   54.283924   18.740244   42.354683
H   56.331486   13.133577   75.249290
H   15.425626   89.667992   75.704269
H   62.047588   56.989780   63.084538
H   43.413090    3.202105   71.594437
H   88.916588    3.764351   60.885853
H   44.642029   32.005066    2.741887
H   36.768490   79.078590    7.892374
H    3.511664    9.639643   15.035501
H   95.723343   10.720106   33.937775
H    5.546768   39.801857   19.954321
H   97.684662   14.076921   69.149246
H   26.245178   11.611405   79.131470
H   45.251865   60.301388   14.575009
H   68.451920   98.398994   79.978813
H   37.723022   11.897764   17.348183
H   91.170456   89.589088   15.285235
H   61.424576   51.172623   80.334785
H    0.749642   23.150749   56.114651
H   95.437355   56.567879   48.121685
H   49.249069    7.966940   50.297436
H   61.277306   16.134502   48.619770
H   42.826828   25.910675   52.107201
H   65.308899   34.855026   98.102875
H   67.287544   78.099648   41.470768
H   31.815729   94.308716   82.845238
H   94.583160   33.030056   17.542255
H   92.248344   40.281563    0.746121
H   45.292168   31.096746   32.089336
H   66.418236   18.064444   79.925804
H   23.482641   77.122787   21.537939
H   12.976985   37.992516    9.649125
H   44.189392   48.452000   36.913353
H   14.977423   15.060804   72.397072
H   44.619381   47.117229   83.028343
H   70.677475   55.486588   42.617996
H   26.880184   36.031616   94.102448
H   68.766853   59.686504    5.961586
H   68.384918   41.047432   80.630035
H   11.611248   72.381752   61.503059
H   82.296776   78.004074    5.750091
H   83.708160   67.266998   77.822395
H   91.459663   98.183128   14.094873
H   13.913372   38.345810   85.846382
H   94.575691   66.521072   69.869461
H    5.845593   25.166876   66.369377
H   95.899712   79.287949   52.288589
H   13.858429   17.805563   43.058868
H   26.785625   95.303589   55.702019
H   36.316940   27.651781   78.402008
H   25.759167   66.617317   38.040527
H   13.195083   30.916504   28.452217
H   26.584900   44.281780    0.640400
H   46.307602   34.420284   31.640312
