100
TIME:    4.356, STEP:  4356
H   22.743595   22.553833   95.157974
H   80.173592   40.909500   52.766342
H   54.630379   87.292442   72.212227
H   82.207748   53.183403    1.395036
H   56.154755   21.910112   47.595047
H   60.476543   96.488914   10.135063
H   24.672787   55.476681   31.097879
H   77.513283   65.450226    8.239843
H   46.549141   67.481735   25.891909
H   55.802177   78.929070   78.266785
H   95.070526   41.515522   20.157860
H   89.583580   42.034294   82.864479
H   66.101761   98.173592   92.187988
H   39.396996   91.649452   88.733292
H   33.487129   80.932068   41.383595
H   26.379501   30.737480   71.455017
H   73.823494   70.085190   69.932213
H   94.220421   82.868279   48.525585
H   13.114540   61.094963   92.854004
H   75.158195   13.311594   12.909311
H    5.785492   22.563595   39.014229
H   79.994308   49.866638   48.324631
H   27.585152   59.195152    7.719222
H   14.321938   88.925049   83.558670
H   73.788727   40.707336   68.709877
H   26.689215   97.879578   80.799629
H   86.456261   61.405361   86.398109
H   64.994171   59.763062   10.756553
H    5.887715   44.302151   51.261391
H   68.021652   83.028496   29.677670
H   87.491249   12.666808   64.746086
H   40.797619   32.160126   96.007332
H   77.188698   49.776360   90.219833
H   62.152954   74.521362   88.240379
H   72.492691   29.640038   89.978806
H   51.297108   26.609730    5.733378
H   97.596420   45.010239   51.701038
H   83.950356   79.235786   29.832378
H   61.206524   86.508415   22.183363
H   52.906380    4.388682   80.755798
H   37.549515    5.650307   44.971172
H   40.128677    7.356831    7.450223
H   48.761616   89.621582   16.112597
H    1.199480   85.771942    6.641713
H   78.804436   60.023781   28.865725
H   21.889309   46.000843    0.855430
H   75.765915   61.732018   67.280785
H   56.472050   40.235352   38.102501
H   92.361679   71.685028   70.713165
H   17.235958   97.033943   78.999611
H   43.212284   49.100014   99.345779
H   16.825968   59.535885   88.098328
H   99.228127   47.266296   49.880230
H   75.816002   36.133308   24.034222
H   93.963379   40.337757   37.396824
H   99.016556    7.951633   44.338287
H   72.402328   63.856163   70.279274
H    1.699076   65.517204    1.353751
H   33.824997   22.820736   77.071266
H   71.566772   62.605938   39.715584
H   34.480957   75.996971   74.767189
H   44.311668   87.397049   98.257751
H   69.790321   10.037200   34.766472
H   42.158379   65.492157    8.872639
H    5.218654   12.937141    1.223980
H   33.749031   25.723030    3.744402
H   38.078873   98.961914   77.369675
H   79.466972   66.661514   74.444588
H   74.005630   36.791946   87.031738
H   18.639284   67.238281   92.560638
H   83.709343   99.017242    9.893867
H   14.795336    6.957762   75.548454
H   22.972326    2.842190   50.062248
H   34.317471   73.724144   44.334923
H   72.190315   34.849392   31.612860
H   28.636026   86.751671    2.826607
H   62.452492   48.997746   68.086952
H   36.633129   65.893715   55.006699
H   70.397438   40.723782   66.286888
H   85.898651   71.717888   45.647881
H   96.113510   74.346481   40.336376
H   68.161995   72.675552   22.531672
H   93.399971   79.967896   44.787548
H   49.835281   84.911201   65.562637
H   40.228745   76.415047   25.486954
H   51.040440   69.059608   44.277145
H   58.082115   86.636230   31.254515
H   26.071978   56.542305   50.442451
H   46.083603   51.636833   92.564339
H   81.209946   30.057991   79.932983
H    2.288067    8.643715   25.452555
H    0.596364   23.094299   16.528337
H   64.681557   58.219986   55.860699
H   68.252548   77.457108   20.521730
H   81.277565   59.546608   16.183323
H   53.709335   23.717484   42.455986
H   16.843716   17.662304   86.671188
H   22.855291   53.326416   86.331856
H    1.203467   55.627300   80.176476
H    9.779718   66.848640   78.113266
