100
TIME:    0.932, STEP:   932
H   54.294838   36.552101   98.292740
H   75.344948   55.277851   36.790462
H   95.777496   40.955456   12.396660
H   81.633041   94.250816   89.077141
H   86.823212   47.461433   40.434288
H   13.564049    0.199297   71.045341
H    4.125114   24.270422   63.336384
H   46.632935   69.230942   22.620590
H   30.717659   96.685287   41.421158
H   49.370461   29.766090   44.187141
H   13.562653    3.743666   49.974098
H   20.267834   70.407082   26.587900
H   83.977570    5.320021   32.495941
H    8.934618    2.203697   28.165653
H   91.837440   86.774628    5.971191
H   64.050537   30.217396   55.676254
H   49.135124   43.631638   58.211494
H   21.060562   49.377563   67.235641
H   59.777023   17.451052   12.464861
H   67.420998   85.991577   79.770958
H    8.970337   63.434799   31.948494
H   51.714100   45.330070   39.897625
H   73.300484   87.042320    5.683718
H   32.448654   47.859623   37.856461
H   96.250969   12.259892   43.439041
H   42.385517   99.839828    1.817176
H   81.711731    3.734063   18.460684
H   53.900871   99.941803   97.579605
H   31.436600   33.649967   13.116425
H   36.729656   67.772873   57.479794
H   52.763981    5.620302   35.661003
H   24.604071   26.762444   12.984138
H   36.006443    0.293223   81.758873
H   17.481346   88.310555   32.486778
H   57.605507   88.467995   81.480652
H   53.588898   57.698315   17.437452
H   69.189171   70.404152   81.903328
H   25.469955   41.895931   88.210274
H    8.820316   60.612541   52.799751
H   75.408882   24.932261   11.361509
H   71.548660   88.160866   64.302048
H   47.858330   53.687859   46.586994
H   19.268698   69.088867   68.791481
H   19.844767   28.390341   71.859383
H   75.810783   95.119766   35.861946
H   66.048302   80.724663   86.973137
H   45.921131   76.017685   35.587105
H   56.289188    4.979249   26.244780
H   92.274651   55.260132    7.295358
H   45.436810   44.935032   18.479958
H   43.473515   79.664787   63.243732
H   50.425987   77.256836   12.877129
H   28.212526   27.412781   48.741379
H   55.107418   91.997414   72.943314
H   66.564407   40.208973    8.314753
H   94.732376   11.552458   60.899323
H   55.335304   62.654518   44.628456
H   56.659851   88.871544   89.548660
H   63.780548   78.147583   39.933292
H   97.517151   99.423462   37.101280
H   18.491869   35.228828   41.729263
H   65.832642   19.270432   53.186134
H   37.449821   43.598457   69.619240
H    7.037582   46.864334    1.834448
H   69.316582   86.406914   82.356850
H   44.091011   95.940681    1.292938
H   12.792383   80.583527   12.059044
H   15.986365   70.839096   10.757590
H    3.351705   82.818756    1.778016
H   49.265617   95.019676   99.770599
H   92.436348   31.988287   50.969547
H   97.119888   20.594429   24.857885
H   46.223984   72.204720   37.851032
H    9.677444   90.400757   47.817070
H    7.108099   29.969824   72.049736
H   47.693371   67.306419   33.218166
H   51.575031   45.766716    7.525501
H   75.767380   89.779610   65.912552
H    6.224525   50.772312   28.080589
H   53.818527   58.196884   40.628479
H   29.120419   38.923626   35.691555
H   11.251419   50.314224    8.844185
H   76.766441   22.812769   18.668125
H   14.282387   91.914040   78.302162
H    6.948399   90.586487   57.405495
H   29.841412   43.288952    6.504141
H   29.400900   35.588936   67.984436
H   70.958527   30.675701   86.053169
H   75.024117   42.279472   20.574989
H   83.935623   70.934189   57.531322
H   62.163822   23.757502   53.143871
H   47.245518   65.601372   51.280357
H   45.082451   55.555237   91.016655
H   37.309303   69.766624   89.658592
H   40.479038   66.247681   37.502068
H   70.900955   58.927238   19.310158
H   88.624832   21.165785   83.588745
H   10.287139   24.173096   41.124146
H   64.313713   40.867779   66.981148
H   97.121780   54.765316    7.920819
