100
TIME:    3.572, STEP:  3572
H   75.762604   94.450806   95.875748
H    1.907910   98.412186    3.320674
H   41.154182   30.887470   81.411690
H   82.076157   85.483208   44.370007
H   63.176971   59.069057   68.853104
H   72.632576   97.338280   32.492897
H   65.760124    2.535211   69.787987
H   39.134140   97.625992   80.225029
H   65.821358   42.860214   75.243080
H   77.227715   67.671989   47.566803
H   67.996292    9.969666   95.676582
H   19.506638    2.736705   38.669731
H   16.047817   45.596497   70.100548
H   78.216576   94.065956   29.070858
H   23.950180   50.961716   79.070290
H   57.902252   99.308769   36.534523
H   36.868233   18.231342   98.561600
H   77.472374   20.994484   75.708679
H    0.903838   28.202997   51.547947
H   96.284660   29.960947   59.530998
H   52.309174    0.612718   60.290230
H    4.831467   48.825867   15.089447
H   38.052681   65.571373   30.152081
H   87.163979   79.522217   41.786022
H    1.829632    2.881004   62.919838
H   30.278982   21.176313   54.366699
H   54.061939   93.992752   70.846352
H   31.147181   23.168579   84.843071
H   88.840164   73.171829   88.322426
H   37.958908    2.432471   67.352356
H   56.637524   42.363544   26.773674
H   91.295570   53.818939   68.586128
H   21.963987    7.138134   19.590925
H   29.027443   46.370216   21.268139
H   91.980240   88.904198   42.237633
H   83.129875   65.085724    8.356946
H   22.400620   73.721176   89.925041
H   16.355530   93.579292   74.506905
H   94.296387    3.590792   98.159294
H   26.751293   77.784988   19.071402
H   91.131302   78.746902   26.500471
H   10.590172   72.172882   70.616898
H   42.008564   84.920166   59.481915
H   51.262421   72.636688   29.985487
H   46.810757   90.959045   61.776546
H   32.003933   31.047230   97.671974
H   69.640915   19.095371   59.752754
H   56.430180   32.160400   89.593071
H   69.440781   36.616287    1.984425
H    0.792965   85.106941   33.833889
H   43.272099   24.790180   91.079422
H   78.725479   32.284012   39.567188
H   82.970558   42.720398   95.412849
H   93.975670   48.927620   89.439606
H   56.385452   71.626404   30.728083
H   98.035599    8.777029   71.027496
H   22.701487   86.477989   95.714272
H   60.077629   39.556580   21.549065
H   71.992073   89.693985   37.258686
H   23.304039    2.342879   62.014412
H   85.024910   12.458329   35.894428
H   72.137352   94.694412   33.732872
H   16.562960   63.536308   88.527702
H   88.322380   61.225296   30.160603
H   74.102562   75.554878   28.214251
H   81.911629   64.698128   57.388321
H    0.979798   71.854004   39.519085
H   33.623421   21.823923   36.964855
H   34.930382   93.125198   36.203167
H    2.755585   27.803419   94.211517
H    8.604635   52.361122   19.299690
H   79.439011   32.977539   18.146446
H   74.090286   41.619900   70.164055
H   51.579922   23.335781   90.918419
H   34.392269   33.730862   72.179726
H   10.100003   36.504257   55.578320
H   91.269325   16.949051   54.221958
H   99.799377   17.155794   11.707167
H   32.803040   43.026638   57.537598
H   24.347847   14.414482   13.190142
H   80.777084   66.235641   93.479294
H    9.335069   67.555435   88.088745
H   43.799389   66.880493   70.115265
H   95.898361   17.822678   37.169662
H   78.402328   25.453579    1.487175
H   69.084778   40.260002   89.833618
H    5.720541   43.639427   93.869965
H   13.454119   19.311188   58.595161
H   29.813671   95.289421   98.976448
H   50.526241   62.315926   51.906509
H   70.203552   66.307762    8.895913
H   42.586052   64.139214    1.588770
H   14.426452   34.694962   95.232689
H   92.474800   29.900463   67.658989
H   94.831520   29.771618   98.168571
H   88.954117   54.676643   82.950371
H   79.073944   72.670403   31.760900
H   19.978216   46.651123   98.880928
H   38.551476   52.247784   45.844955
H   61.080173   86.970222   53.638290
