100
TIME:    4.848, STEP:  4848
H   89.472328   77.435066   94.707535
H   66.585335   67.571259   83.787964
H   63.087379   22.688297   66.439095
H   82.290329   32.913628   74.428596
H   51.747955   61.346085   34.254532
H   52.845348   95.955894   58.860622
H   98.887367   88.697556   69.572922
H   38.843056    8.016162   63.067677
H   34.454842   20.178085   94.922142
H   42.356560   85.993462   97.530579
H   49.305878   61.312336   72.764938
H   70.807762   66.695854   47.842812
H   34.706131   68.422066   43.300293
H   15.037000   90.132973   26.174913
H   39.470467   36.984192   17.732903
H    6.595859   87.705154   30.615108
H   34.259895    2.629205   14.720915
H    4.739222   58.929165   31.468760
H   20.777641   81.733124   18.774187
H   61.900856    2.863276   46.406990
H   76.589531   73.584137   25.661560
H   27.162827   50.519775    6.426272
H   21.016243   55.193748   93.642471
H   68.609756   94.824432   47.018776
H   56.191559    1.688019   72.343422
H   24.446402   83.337891   34.534382
H   44.030602   40.951656   96.157631
H   23.481949   82.727966   27.020868
H   16.586540   88.940697   28.004025
H   86.887558   70.851616   68.790718
H    6.853595   56.784351   25.820610
H   71.862923   18.568115   50.460396
H   11.843466   13.779692   34.543083
H   82.940735   29.432373   67.512657
H   60.263260   92.448349   19.938049
H   94.066330   65.144829    4.185462
H   44.785095   26.992138   90.468857
H   63.613087   70.234505   64.550056
H   40.437511   75.787956   74.505157
H    6.566389   58.330521   19.464510
H    3.925720   22.530592   56.562481
H   95.909843   29.438223   30.562639
H   52.999500   92.571960   51.649353
H   69.781387   94.016357   54.747353
H   36.127750   40.613594   70.966942
H   15.541798   55.384998    2.855491
H   79.609665   88.488121   72.002892
H   56.498325   45.302795   68.544701
H    6.744161   30.938320   51.086548
H   27.554775    4.521009   44.588158
H   43.174747    1.599984    4.532525
H   40.735603   13.880838   55.800865
H    9.433454   50.119080   21.304304
H   64.419884   28.104225   45.744713
H   54.790161   83.457771   41.582157
H   99.632156    7.434097   27.589447
H    3.594934   49.659813   17.072731
H   65.063370   19.053850   88.681259
H   72.627434   43.609344   39.299461
H   39.100475    0.420506   25.721931
H   65.516235   53.116436   36.407463
H   26.850187   82.817581   75.998535
H    3.190604   76.464157    1.028540
H   75.943764   68.172272   95.514618
H   24.747149   73.643097   47.042439
H    3.525677    1.264715   32.834923
H   98.603912   15.971082    1.122925
H   45.481316   94.798965   97.965034
H   98.524551    1.439972   56.175682
H   28.607134   91.982422   91.524628
H   68.086601   65.542084    3.991552
H   74.226715   90.629120   11.569224
H   90.892273   78.503883   37.446190
H   23.485409   42.588688   15.101898
H   95.913460   35.551327   68.909271
H   40.268623   18.283640   69.719528
H    7.121556    6.353519   76.787941
H   59.748180   33.721294   82.176949
H   93.992958   39.278622   71.774742
H   61.770111   44.921574    3.261762
H    5.739836   79.436447   69.742561
H    5.075915   75.888687   81.390526
H   24.521235   88.195007   91.642548
H   83.684235   27.013128   20.627419
H   16.271639   45.640282   77.793221
H   39.715641   87.129738   78.442978
H   90.941673   50.863831   54.714905
H   33.990799   17.152082   45.326210
H   56.293564   24.243139   88.540413
H   37.710239    9.814491   97.522644
H   22.422844   35.210033   35.842693
H   37.001804   60.095139   25.902609
H   96.219826   72.985420   93.907822
H   15.804936    7.299264   53.693493
H   72.771767   15.474861   27.487476
H   94.346481    4.289928   17.043694
H   77.791039   45.897350   58.376083
H   24.660803   57.515503   78.456673
H   77.765625   57.748119   38.966492
H   40.338474   54.224232   30.716944
