100
TIME:    4.111, STEP:  4111
H   39.311676   45.021637   95.382278
H   86.940102   27.632563   37.317390
H   50.419067   69.665871   75.087059
H   82.166626   63.277092   14.824691
H   58.349197    2.272281   54.238190
H   64.276497   96.754341   85.872246
H   37.512867   38.932377   11.938561
H   96.769798   44.255222   30.735523
H   52.571709   91.037415   41.314320
H   62.497658   75.411232   68.674042
H   17.859818   31.657352   43.757000
H   98.933327   29.753641    0.304114
H   81.735764   12.989697   16.532547
H   51.528114   92.404610   70.089874
H   30.507153    2.816588   53.161434
H   36.230728   52.166008   91.791931
H   93.524879   53.880383   47.628899
H   88.986656   94.782570   57.021107
H    9.298565   50.816223   79.945297
H   81.760216   18.514517   96.228661
H   20.324142   46.954807   45.662979
H   56.505920   49.541397   69.188660
H   30.856255   61.187721   14.729196
H   37.085075   85.986664    1.753630
H   82.551544   60.137688   66.900490
H   27.806063    5.122043    3.839228
H    7.582331   71.589249   81.538185
H   85.667542   48.327286    2.657768
H    0.560096   22.074020   62.842964
H   58.627045   89.092186   10.201523
H   77.849907   90.697014   84.129707
H   25.328108   38.928505   18.688164
H   59.931789   67.702003   68.148300
H   51.801315   96.974213   98.562111
H   78.582550   48.160088   75.058838
H   29.999426    7.420303    6.504190
H   74.096817   53.982407   32.395924
H   94.077690   83.718132   12.544039
H   71.547455   91.846855   45.925575
H   75.982643   27.324959   61.480343
H   54.293823   97.243774   39.199078
H   62.147873   96.361099   95.940094
H   46.651287   88.152390   98.416161
H   16.843847   81.667175   82.686279
H    0.057257   69.690521    7.899826
H   25.050129   41.327839   99.859688
H   73.851852   48.408348   64.929329
H   56.458965   37.711929   22.943275
H   85.198898   91.977081   80.485352
H   12.097522   93.306755   96.136452
H   43.230976   72.752892   96.762543
H    4.920088   82.269485    4.181387
H   94.147636   45.845703   64.110451
H   81.490898   40.131531   13.223693
H   13.470139   18.866236   35.312664
H   98.710007    8.209539   52.678665
H   56.870121   70.925484   46.977806
H   19.942131   88.654182    7.664692
H   14.503057   12.468323   95.879173
H   87.735367   43.773731   46.683968
H   19.025614   87.391624   93.870430
H   53.007195   89.677475    9.343436
H   53.156948   26.756107   51.566856
H   25.334066   64.157547   15.525127
H   95.494453   32.504902   78.408455
H   48.799843   37.902748   89.258209
H   57.735397   90.490692   65.541367
H   96.390724   52.649979   62.732174
H   61.795670   54.396088    2.396813
H   13.675619   54.915123   93.076538
H   91.488960   15.687227   12.833187
H   34.996567   15.089227   57.610928
H   38.947052   14.960224   56.344635
H   39.711987   89.227303   58.892265
H   60.377537   34.499851   13.039538
H   22.843370   71.050377   19.311722
H   40.207123   70.233200   63.754139
H   25.122585   81.912773   41.475548
H   58.648491   41.443424   63.553810
H   97.913879   85.060249   66.754906
H   91.320877   71.811844   25.693453
H   49.778816   71.075516   43.018555
H   77.900551   75.878082   21.452435
H   32.980690   63.946236   87.940720
H   52.157990   91.738762   49.237030
H   56.679821   60.060455   27.263672
H   41.719124    4.449745   19.572004
H   22.128897   76.157707   52.990173
H   40.999374   65.278267   94.568123
H    2.870430   40.138596   71.173904
H   92.261627   95.414223   20.278605
H   82.468796    4.669867   11.859861
H   48.976524   50.868416   36.914471
H   44.571964   62.596779    4.002717
H   85.513176   81.491417   10.553769
H   33.473358   33.391670   55.110481
H   36.290161    3.602581    0.761257
H   21.956205   51.240387   90.253441
H   12.874626   54.571201    0.696636
H   94.561699   73.136635    1.713907
