100
TIME:    9.682, STEP:  9682
H   62.567780   34.135872   90.281876
H   33.082169   29.517414   88.586052
H   46.195545   70.465843    9.687824
H   83.101700   33.753044    9.458541
H    8.440226   48.811981    3.187845
H   77.880127   90.718864   37.586639
H   45.535915   15.112567   47.598186
H   58.900192   26.218113   19.224220
H   15.625832   55.407150   90.639946
H   10.307554   55.404179   86.810188
H   99.658905   55.817322    7.128014
H   86.305977    8.999119    3.754150
H   26.360764   75.949486   62.936317
H   75.686935   75.233253   94.043922
H   98.203560    5.188850   85.292747
H   12.230362   64.905807   29.350525
H   45.538216   22.360214   54.779007
H    8.110961   23.712608   63.898537
H   96.069183   84.524994   73.449539
H   31.665638    0.205740   75.528191
H   89.732620   92.344063   94.456787
H   90.603119   56.936981   94.766571
H   56.473549   15.886679   55.337418
H   19.460114   52.653046   88.004807
H   83.301010   18.329117    8.039780
H    1.953387   40.678146   79.762947
H   27.188934   40.007755   92.070358
H   15.602890    8.362737   86.807701
H   21.697079   27.518564   99.499466
H   72.244041   51.210068   53.079628
H   97.102303   90.259567   43.370071
H   77.084763   85.008118    2.952849
H   52.345337   60.101105   70.027977
H   87.189255   86.425224   63.864082
H   39.997627   26.606697   14.113019
H   14.277132   43.769909   88.988350
H    8.429124   49.959724   71.369095
H   63.814693   81.769966    5.673880
H   36.391911   70.462852    6.054993
H   51.256786    5.785846   99.793839
H   73.555466   88.395782   70.448204
H   84.267418   79.572769   74.239494
H   94.610443   21.568897    0.814444
H   61.123348   75.161293   27.387966
H   16.806677   49.891331   84.624420
H   53.152374   47.580151   22.495543
H   17.387615   51.381527   18.409010
H   56.778561   95.091461   67.644470
H   48.043015   30.587040   58.256897
H   29.008238   78.106743    6.566958
H   45.192768   35.086319   51.873154
H   75.674118   65.322311   38.473213
H    9.696703   78.148254   40.557159
H   52.475601   49.235542   59.055977
H   69.899574    7.088592   82.687134
H    5.654678    2.349199   63.028656
H   10.049526   10.176411   76.826180
H    5.114564   62.541695   64.169090
H   53.879040   47.870453   68.199059
H   20.107227   71.979645   88.231483
H   70.452393   28.313780   59.517498
H   55.284813   37.823380   57.277084
H   31.379448   46.613426   69.552444
H    7.885065   94.504944   64.276688
H   16.617371   87.557533   97.210732
H    6.569370   60.952690   18.660257
H   10.763287   83.093384   34.509838
H   11.563888   71.261238   29.058197
H   39.452080   54.099564   52.995670
H   26.661362   34.945873   81.308258
H   14.577040   36.633869   46.014351
H   75.977394   30.120506   65.731171
H   75.707764   39.398624   13.501507
H   17.072628   36.646526   27.881590
H   28.861830   42.571476   35.397251
H   54.548607   28.097763   44.453224
H   46.115181   87.798386   62.457977
H   86.849998   17.646812   49.151611
H   25.800833   25.079632   25.708902
H   24.710857   81.594551   86.808357
H    0.356879   29.447092   58.663383
H   67.824272    7.266977   77.007118
H   30.280890   69.035561   52.008442
H   16.255646   40.669266   79.115990
H   80.898849   43.252274    9.192933
H   28.459454   64.692375   14.130828
H   13.793810   99.391563   85.218239
H   11.741232   30.314165   95.194336
H   56.614017   55.093803   49.004524
H   10.319650   10.931335   70.322845
H   20.250662   96.230698   37.928246
H   94.668854   23.658243   18.007921
H    6.088435   18.022406   67.728508
H   80.634865    0.389286   83.260323
H   89.193924   82.475136   38.566780
H   93.615067   13.400904   67.360992
H   94.091026   23.308208   80.367203
H   19.588808   65.524139   84.509117
H   47.484795   78.611412   34.068737
H   40.597267   30.179695   65.043121
