100
TIME:    9.704, STEP:  9704
H   61.079987   32.118355   90.261734
H   32.474564   30.709629   89.973137
H   46.573704   72.048637    9.429550
H   83.105392   32.846672    8.252604
H    8.243090   50.575378    2.591360
H   77.539062   90.695030   39.765457
H   44.382977   16.598177   49.318615
H   57.171036   28.121326   17.204185
H   15.085030   53.291946   89.255211
H    9.706579   55.720066   87.671577
H   97.612518   56.702545    5.008845
H   85.466408   10.101830    2.188204
H   24.957901   74.617790   60.750114
H   74.597610   75.165443   95.718025
H   98.470772    3.223706   84.234642
H   11.345726   62.981613   27.524269
H   43.769112   23.815277   56.781754
H    8.581435   22.642082   63.136009
H   96.411926   85.447815   74.609360
H   31.072971   99.738495   77.026054
H   88.427109   90.153999   93.859589
H   92.712280   56.966187   92.893066
H   56.179817   15.707796   54.707993
H   17.415993   52.916229   86.370987
H   82.514145   16.584351    8.202171
H    1.849606   40.029587   77.692726
H   25.291847   39.093159   92.506760
H   13.746632    9.389623   87.534813
H   22.175442   29.514513   98.459488
H   73.087639   50.665573   54.828590
H   97.968056   92.232437   41.629501
H   78.473862   84.400177    0.916216
H   53.895065   58.491455   72.009911
H   88.118790   84.409050   62.937233
H   39.450111   24.940987   15.451554
H   16.189493   45.493191   88.919197
H   10.539208   49.154060   73.102615
H   62.905468   81.367470    7.226315
H   35.463215   69.983482    3.923088
H   49.184719    3.726241    1.524746
H   72.051895   89.150757   70.966515
H   82.413383   79.659378   75.362053
H   94.799774   21.700909    2.403490
H   59.718639   75.530556   29.538921
H   14.896582   49.020542   86.505981
H   52.868546   47.999767   22.584921
H   17.559658   52.578106   18.620245
H   56.779903   95.318054   69.005707
H   48.686035   28.765064   57.379227
H   29.469984   78.441765    5.028706
H   45.315296   32.971619   51.914444
H   76.743301   63.280899   37.029060
H   10.153036   78.275818   39.279343
H   51.966187   48.876518   60.026802
H   68.147926    9.016604   82.874115
H    5.682079    2.326057   62.279724
H   11.444206    9.541573   78.918556
H    3.476422   60.464088   63.602440
H   55.614239   48.800156   66.510185
H   18.655521   73.670532   87.605751
H   71.840149   27.290670   57.802273
H   54.503990   37.618607   56.281586
H   32.874828   45.115059   68.045181
H    9.395809   94.624786   63.679398
H   17.490593   85.800514   99.259468
H    5.217931   59.859001   19.961069
H    8.998127   83.854065   35.571972
H   10.044162   72.519417   30.109924
H   40.548622   52.518784   51.615803
H   27.108170   36.050808   81.261597
H   13.878336   35.136845   45.750496
H   74.165657   29.390038   67.343842
H   74.273346   38.310474   12.937374
H   16.588390   35.254238   26.574484
H   29.921530   42.603870   37.065311
H   55.068764   29.507759   42.972984
H   48.113228   85.894333   62.848221
H   87.883598   16.208366   50.366653
H   26.855749   25.015011   25.954462
H   23.632023   80.396126   84.913033
H    0.787534   29.674692   59.978294
H   69.475212    7.409794   75.166512
H   31.672422   69.403481   54.103672
H   17.769203   42.551834   77.106529
H   79.827652   41.876099    7.060315
H   27.953060   65.500389   15.658610
H   15.263140   97.791985   86.267281
H   12.095011   28.553705   94.966400
H   57.070560   53.868858   48.824593
H    8.374516   10.026138   71.109375
H   21.150991   97.418716   38.392845
H   96.296631   25.312792   18.427034
H    7.498662   18.682547   69.429802
H   82.636940    1.714671   84.934425
H   88.813583   80.504616   39.072334
H   95.432175   12.532171   66.224670
H   92.344749   24.570667   79.101974
H   19.546343   66.612793   84.067345
H   46.436760   78.706413   32.225948
H   41.963707   29.615143   62.923801
