100
TIME:    6.045, STEP:  6045
H    8.523979   67.664879   93.611649
H   33.526100   32.433598   59.263317
H   83.671371    8.805755   52.385937
H   82.491241   83.595795    8.815221
H   41.026535   57.290833    1.801322
H   34.279209   94.659096   77.403374
H   36.151936   69.526054   63.179951
H   44.761215   11.571820   53.162739
H    5.030296    5.091245   19.575331
H    9.650145    3.180854   44.403934
H   37.963852    9.476236   57.463783
H   25.119797   26.695026   62.639290
H   58.322891   96.036751   24.360039
H   55.768425   86.443489   17.266819
H   54.027489   30.063423   60.196354
H   58.467667   83.011147   31.253597
H   38.004250   81.800285   23.688543
H   30.336439    0.689496   89.974648
H   39.419590   31.948610   81.835892
H   29.654404   77.439247   27.904291
H    5.557838   54.419186   93.172157
H   41.920380   52.108810    4.490686
H    5.033214   45.458626   59.396027
H   57.391064    9.144014   58.120029
H   13.380784    6.760330   81.183571
H   18.989801   47.954887   21.973171
H   40.811836   91.193253   19.908331
H   22.482521   38.599861   66.590897
H   42.613838   97.541992   71.421875
H   32.784489   41.226158   63.948715
H   53.965576   64.121376   31.117775
H   47.442173   85.494919   39.648109
H   96.158318   26.201040   42.378296
H   33.518059   19.734428   17.084978
H   30.509720    1.963506   92.827057
H   98.119492   58.899162    0.420778
H   59.592369   83.153931   84.787758
H   14.142416   48.328510   49.019650
H   89.910431   49.705864   58.506798
H   93.822159   46.270931   13.642046
H   22.118534   63.598930   84.763283
H   90.774216   65.308609   88.567467
H   63.309963   99.750015   38.110817
H   93.350586   14.107992   71.783287
H   32.297092   93.388016   73.397202
H    0.095721   78.215958    7.719676
H   88.961227   53.585892   83.491432
H   56.562252   57.631516   42.608250
H   41.730370   31.802895    3.335451
H   52.659702   22.740118   60.867577
H   43.086514   86.037521   17.150990
H   98.908897    2.808235   77.219429
H   34.263805   57.059692   51.785557
H   36.702957    8.570922   98.566429
H   59.483147   88.359802   51.764767
H    1.124799    6.174970   86.840729
H   79.478157   15.121074   30.917351
H   75.932526    6.011627   57.850327
H   67.032028   94.184669   47.407204
H   60.109856   92.426392   91.676414
H   41.024250   97.452164   43.079708
H   84.369057   71.676071   21.836380
H   84.455788   94.782753   18.946655
H   58.140022   74.692795   63.021313
H   72.260666   78.040604   58.513645
H   29.992031   41.758141    3.611019
H    2.566405   57.351688   58.914993
H   62.796257   63.257359   55.188557
H   58.185703   15.431175   81.101105
H   52.854256   52.189056   89.004089
H   30.077381   84.099030   89.634377
H   75.528641   50.903244   99.207993
H   12.845787   19.296394    6.752243
H   97.137398   66.829735   43.979729
H   53.623707   37.259083   59.650162
H   68.568413   95.000298   89.177704
H   15.801414    2.605203   97.956810
H   15.985423   55.453598   48.283371
H   51.391476   35.762653   85.126289
H    3.072974   79.719673    0.139121
H   29.163515   91.819962   41.284107
H   94.906677   83.673477   81.276573
H    0.233488    8.212594    5.638139
H   66.034767   29.443146   11.300267
H   57.987984   70.767876   61.757431
H   12.163235   31.096272   61.566360
H   70.886604   63.832039   11.792440
H   53.249229   21.346292   32.900536
H   81.133652   57.596138   78.750496
H   31.879190   60.570210   40.311165
H   71.408958   99.844986   61.121136
H   25.567682   50.120880   48.706177
H   72.949661    8.898305   86.473709
H   31.493614   79.916328   34.404007
H   52.077782    8.254673   54.993473
H   93.213776   57.020966   55.216858
H   82.778862   14.590665   89.535629
H   26.609079   85.564972   57.526352
H   20.743011   62.907917   38.705330
H   14.690071   23.510757   15.406075
