100
TIME:    7.272, STEP:  7272
H   25.546339   55.143532   92.488297
H   99.642532   98.921761   36.627987
H    4.769812   97.081276   37.978947
H   82.697189   33.044952   41.559864
H   30.035570   55.640209   68.531525
H   15.247846   93.329796   98.916336
H   71.843399   52.378841   59.133022
H   48.321434   17.722790   40.503212
H   74.868233   87.120163   42.340580
H   76.135475   20.800142   92.445961
H   23.831299   58.847248   39.273682
H   78.289749   88.198547   75.300301
H   80.038368   21.820850    2.435612
H   95.015678   82.661537   10.641827
H   68.931709   20.461937    1.193220
H    9.131618   75.693237   29.401735
H   39.336189   62.955654   35.387203
H   56.576069   40.983398   47.440697
H   58.525936   83.422684   46.478184
H   96.598801   51.382015   11.444132
H   32.745926   32.266823   59.865932
H   59.554062   53.737671    0.000332
H   88.650520   35.479515   24.290247
H   43.384438   23.822481   66.992813
H   69.495918    9.453415   90.245277
H   13.319210   11.723366    6.554742
H   35.006016   40.188698   44.256985
H   18.951771   95.872093    7.145141
H   69.293449    8.864948   13.420965
H   79.834213   10.857811   61.491661
H    2.253248   74.149353   34.041512
H   24.915646   51.591839   26.058571
H   82.587166   36.427757   52.916145
H   85.360756    7.287330   65.393463
H   99.975502    9.077553   67.487320
H    4.780483   55.003174   96.563728
H   77.277969   38.219849   81.470551
H   63.425102   25.870831   35.606010
H   38.119221   22.971666   39.601181
H   78.251869   31.402761   10.179921
H   38.261429    5.704669   13.669834
H   87.369316   70.120300   51.207684
H   73.870087    7.110474   26.738163
H   15.002605   34.702782   91.753288
H   25.864010   44.975224   78.394600
H   84.256493    1.618860   12.704550
H   98.547165   20.314312   95.267906
H   56.631466   70.269226   18.527660
H   77.596931   30.182964   54.392464
H   78.416748   41.417927   75.074654
H   43.002262   67.578842   30.083580
H   58.547894   88.951096   96.675079
H   59.717091   64.174255   80.522865
H    8.291512   88.553513   52.709244
H   61.787521   95.887840   62.202579
H    2.653026    4.884285   45.070755
H   57.263874   79.715828   47.615211
H   84.567795   90.136452   26.245836
H   63.803017   46.034954   53.213814
H   79.141380   86.738068   56.777611
H   18.423841   40.389755   47.413017
H   40.820442   60.255325   66.320923
H   67.757820   11.054547   34.807587
H   42.395115   81.376740   29.704563
H   20.960182   80.042175   72.778587
H   54.616943   80.760735   76.161240
H    4.121935   99.775482   18.154406
H   78.038902   33.431450   13.846251
H   19.336853   27.266785    4.144568
H   77.715309   13.899145   86.419800
H   91.112938    0.614823   74.918465
H   74.435356   10.140607   89.081062
H   32.843735   58.608387   75.296448
H   70.120781   89.174561   71.076111
H   12.771115   39.022816   52.669590
H   97.569618   73.640770    6.616642
H   27.235844   96.389839   19.711214
H   73.632111   75.222847   16.044161
H   10.233060   32.158566   98.812462
H   42.898911   12.878997   94.431984
H   53.176277    4.514535   14.620347
H   86.981667   91.630692   78.628304
H   77.845970   28.731604   22.491440
H   50.450848   34.440304   99.233055
H   98.243668   94.014488   42.813469
H   83.925949   76.168152   46.773026
H   52.835224   74.618828   70.300362
H   72.982780   23.160833   20.178574
H    6.597207   89.279289   68.715218
H   23.395990   10.084896   84.173004
H   21.622944   66.097145   87.033127
H   16.353258   42.402939   72.084496
H   51.602665   45.716167   81.359505
H   50.076668   54.356651   17.138544
H   30.864899   98.347397   83.189606
H   94.558945    8.568952   91.840492
H   85.385399   85.005005   18.969532
H   24.240679   46.277355   32.896858
H   62.291740   68.204460   35.931271
H   90.903496   92.023239   97.204926
