100
TIME:    9.243, STEP:  9243
H   92.256012   74.394508   90.683792
H   45.206650    5.727629   60.907024
H   38.649563   38.881905   14.841566
H   83.028015   51.839287   33.521950
H   12.373983   13.624249   15.090435
H   84.685913   91.194466   94.110992
H   68.542946   85.469551   13.267818
H   93.404724   88.239029   59.533096
H   26.417290   97.615082   18.272909
H   22.299738   49.100788   69.621559
H   40.493683   38.153091   49.415352
H    3.059807   86.994560   35.001701
H   54.354248    2.522615    6.563963
H   97.423920   76.586372   60.637623
H   92.871468   44.402504    6.405867
H   29.882870    3.302297   65.791077
H   80.839882   93.323952   14.815107
H   98.722336   45.074471   79.117752
H   89.229904   66.110519   50.317699
H   43.492031    9.528513   45.639000
H   15.783981   36.047630    6.373323
H   48.515759   56.354202   32.151428
H   62.334831   19.455389   67.897308
H   60.250774   47.401337   20.608309
H   99.002548   53.145134    4.799327
H    4.024302   53.619858   21.074186
H   65.045815   58.258114   83.362167
H   52.643578   87.871704   72.298515
H   12.151225   87.689476   20.250271
H   55.410439   62.075211   18.180542
H   79.826591   50.892963   78.102356
H   49.365925   97.139297   43.593254
H   21.421211   92.220932   30.479391
H   68.640808   26.656799   82.358940
H   50.923058   59.845192   87.404251
H   76.115784    9.383702   90.368263
H   66.322083   66.036385   36.777485
H   81.961189   89.801598   74.693352
H   54.923611   80.028465   48.596832
H   92.606262   46.884949   65.255814
H    3.558381   73.330612   60.105556
H   21.264328   77.849594   51.831493
H   90.832428   18.934669   69.103294
H   89.150673   67.792824   84.465401
H   54.893394   67.222420   47.061436
H   58.816048   39.206890   20.712038
H   13.955077   27.504652   14.193552
H   56.751766   90.569901   40.481617
H   35.211830   66.944008   75.768158
H   19.794302   71.421532   37.262180
H   42.866924   77.291328   50.864761
H   54.339046    6.056846   67.290627
H    0.590845   75.602783   66.055038
H   62.640739   56.399704   39.683601
H    4.853085   68.618027   78.956009
H    5.107904    2.810985   77.973251
H   82.217743   22.843864   35.073753
H   37.802673    3.999512   75.476341
H   19.254551   29.318899    1.899851
H   49.075359   38.236195    0.717685
H   42.757778   48.728092   93.741127
H   70.865776   41.909531   77.139595
H    1.567410   76.557152   99.650208
H   77.740784   92.113541   76.193512
H   99.192657   22.620129   56.329121
H   33.536659   82.776756   92.702660
H   45.985580   67.914337   13.313965
H   41.888611   46.154854    8.071457
H   17.571077   85.643311   80.528290
H   17.745514   12.897284   82.239365
H   28.518604   66.506035   51.279457
H   12.128961   44.696678   33.554226
H    4.330981   61.112164   24.758518
H   26.735371   64.429054   53.965706
H    7.715996   41.925060    2.112205
H   44.169113   99.961906   73.991867
H    6.244167   25.795094   54.670845
H   66.224983   46.350349   24.905998
H    4.750073   26.369114   20.808870
H   46.239616    5.508867   24.628410
H   91.762596   24.905436   32.424934
H   34.883476    4.417138   13.734884
H    2.513400   61.693882   10.199079
H   86.052528    3.102468   19.212505
H    2.274109   70.714035   51.748428
H   38.564304   48.565620   83.645096
H   84.473915   31.310768   64.285088
H    4.681540   65.441750   99.742691
H   47.503910   79.537025   52.594978
H   49.133923   28.994133   54.630005
H    2.284376   72.524323   28.657372
H   62.187298   90.641678    9.644708
H   77.947678    4.849592   33.779961
H   40.565201   73.935043   50.038845
H   96.783447   21.797749   28.479261
H   57.355499   30.735353   90.035782
H   28.936176   98.115761    5.614447
H   20.436182   43.803669   93.324486
H   68.397850   76.715706   70.840126
H   13.330500   41.443676    7.331894
