200
TIME:    0.566, STEP:   566
H   19.488485   61.393070   20.913975
H   30.869936   37.637390    3.131582
H   11.304994   83.407120   61.405449
H   28.831501   80.784126   35.974876
H   11.748918   91.991669   48.971405
H   79.013245   43.966843   55.900208
H    8.082381   55.072823   55.961346
H   10.194104    2.963593   13.500781
H    0.667710   82.618912   39.766651
H   99.385422   70.332420   83.213722
H   23.556475    1.558217    3.263573
H   32.125854   50.724251   28.275419
H   19.175442   97.827126   47.930534
H   88.995232   54.582348   57.974850
H    3.882556   74.454155   42.176476
H   19.798107   12.534336   47.290497
H   99.543381   22.986691   99.604225
H   28.821079   98.838776   37.716526
H   75.872025   17.899612   47.282852
H   91.093407   75.227745   24.833347
H   61.997414   93.031891   10.905048
H   82.771431   61.275154   58.011932
H   85.243019   60.171173   41.314018
H   15.513272   91.031364   90.563850
H   17.416168   25.815229   33.777798
H   18.391233   76.804077   96.189537
H    5.208905   65.338051   62.189316
H    1.991904   83.577629    1.589071
H   24.799084   46.620796   36.429451
H   78.317841   29.497465   87.349014
H   12.935873   65.069069   16.593384
H   25.997852   71.146957    1.629344
H   19.246391   16.000326   77.161133
H   85.637154   63.933586   43.988434
H   32.344059   76.330429   31.739302
H   22.412384   42.489006   83.214714
H   95.621246   67.392761   88.402321
H   16.789845   53.188107    0.509835
H   41.004929   34.727024   51.678040
H   86.956360   38.347897   50.962006
H   80.601311   89.994965   12.344987
H   29.565691   36.270866   30.164585
H   70.832108   80.293022   62.433399
H   36.555008   79.067299   30.407625
H   39.915672   86.241394   56.128288
H   36.472183    5.354406   46.233356
H   86.117493   10.240625    3.326657
H   82.179222   65.545631   35.928055
H   99.687897   16.380917   61.401371
H   50.451267   19.272673   91.920670
H   70.453201   66.369881   14.949088
H    8.676271   41.309063   70.550606
H   60.968895   85.097176   12.189949
H   17.554722   89.063248   86.530785
H   63.400009   69.134796   80.230186
H    1.126566   64.318947   89.323212
H    4.500122   17.979103   46.157612
H   70.970322   66.157837   99.419456
H   21.302237   80.775009   15.011165
H   35.563396   94.158607   60.967789
H   49.363708    9.016058   32.711838
H   95.795341   17.197153   51.565147
H   80.428528   31.959791   73.886597
H   32.024712   65.617439   10.946152
H   76.588867   80.939026   31.260279
H   25.951555   29.226480   38.723099
H   73.997902   16.285549   92.570412
H   95.515831   92.191109   93.725792
H   28.118353   10.258670   57.853569
H   43.360386   47.311954   50.965183
H   58.322151   82.230576   82.001404
H   22.978340   15.252894   42.482838
H   87.840469   31.299053   88.579514
H   18.486017    1.798985   70.063271
H   83.114578    6.148760   52.284210
H   61.553795    7.567387   60.747200
H   94.049683   42.086403   67.534340
H   14.480631   11.906221   36.819984
H   14.009037   44.217426   27.718166
H   63.363743   88.848816   78.801300
H   57.204296   24.592318   96.293823
H   40.971104   62.727688   77.779167
H    9.727830   17.242247   80.741371
H   14.043226   72.519661    4.476602
H   27.299294    2.771155   48.543556
H   33.851631   74.368103   20.996544
H   50.466171    3.463421    2.518710
H   72.620461    6.410999   23.738197
H   75.663956   72.850708   78.344849
H   21.811295    0.659394   51.278988
H   27.577198   37.707043   79.304459
H   81.784630   91.395721    5.481077
H   62.746136   13.185421   86.445175
H   45.409451   82.721504   78.056038
H   33.385353   52.516426   81.517311
H   55.771645   34.997986   13.733842
H   83.727806    3.003468   12.369167
H   97.932899   33.504295   51.680164
H   29.630974   66.512360   54.036545
H   72.872719    3.224599   27.329996
H   24.411161   89.439941   84.290688
H    2.694632   81.588654   64.066368
H   29.937071   25.255995   35.058323
H   37.540581   68.541382    3.108316
H   24.906591   23.188560   35.656818
H    0.329112   10.812010   28.628035
H   81.101219   34.144672   54.742050
H   62.830334   46.791122    6.135722
H   81.081367   35.974609   14.896351
H   14.839015   23.515062    7.132792
H   51.483688   93.233879    1.025216
H   99.084000   71.543152   94.224525
H   51.431969   84.057663   86.844414
H   62.119865   12.369190   66.547302
H   52.971321   95.543610   15.342172
H    0.734262   96.260719   93.641098
H   19.171513   13.033116   87.980515
H   39.117138   43.042538   27.462090
H   31.242914   69.953033   67.427689
H   79.385796   53.181332   61.503838
H   43.957039   23.925770   76.837379
H    4.222878   19.757328   57.777496
H   40.095894    8.073242   33.700047
H   99.274246   55.587677    3.589175
H   67.161644    0.880459   82.031197
H   59.665798   71.271698   19.236948
H   87.283394   50.712082   58.464645
H   68.297920   90.126793   37.755886
H   96.479546   40.683231   77.461052
H   83.546265   22.604183   72.055489
H   61.768639   73.545685   15.869640
H   69.186989   89.284714   17.014866
H   91.373238   98.455498   99.800156
H   84.935440   21.361317   53.719509
H   20.530781   95.475525   41.436584
H   53.675323    1.208460   78.878853
H   69.432434   87.395241   71.567528
H   93.999016   54.042156   78.047417
H   54.834320   48.892639   71.472984
H   43.624535   93.454948   86.399170
H   66.756989   53.481819   25.440643
H   42.230637   50.916031   53.846478
H   44.525757   62.761318   88.388412
H   42.775063   14.727076   83.526588
H   55.625469   58.955292   59.728611
H   57.884827   67.592239   14.232880
H   52.441521   95.350151   44.947674
H   33.750816   61.283730   66.954613
H   73.900360   51.181244   94.703659
H   19.853855   92.233955   77.797302
H   64.729439   66.846420   48.883129
H   47.510399   98.089272   37.936226
H   91.320206   19.648907   92.020721
H   18.527576    8.625603   67.896538
H   26.539669   62.488422   66.651009
H   73.179726   44.337238   64.090530
H   62.723675   70.660309   84.615891
H   50.680931   31.429352   17.361649
H   97.461372    0.505982   90.514915
H   60.024761   43.642365   90.751602
H   57.158195   71.165138   74.748055
H   28.297834   21.366882   32.719780
H   79.252037   20.356430   37.096500
H   23.241014   29.756557   57.251274
H   55.832771   33.150108   13.027725
H   17.530376   54.066502   60.519756
H   69.286263   92.294136   55.677639
H   23.916996   45.764877   61.493244
H   98.502632   27.110048   36.087151
H   41.350037    7.999579   86.732269
H   73.137085    9.510715   35.948715
H   34.900978   53.338409   58.459206
H   43.971733   63.446377   81.251297
H   67.211624   66.740334   81.802795
H   56.285950   92.584183   83.902916
H   10.972405   49.421776   23.599508
H   32.068752   63.104919    0.545142
H    4.619270    9.511757   69.048721
H   67.264534   13.801028   65.321991
H   70.792946   57.952080   90.983803
H   75.465988   96.871712   34.139610
H   25.803156   30.503994   81.517334
H   50.625217   89.824234   12.525330
H   58.580299   25.823627   89.183479
H   89.738739   74.194748   77.053757
H    6.085117   38.974594   85.585793
H   42.703491   98.940514    6.488527
H   74.759262   81.033394   36.933655
H   97.177467   62.627163   70.269211
H   55.541771   56.499950   69.821793
H   63.393764   20.238678   76.973457
H   44.980438   93.788544   20.472036
H   11.341676   25.279682   65.274193
H   29.408201   76.541580   39.883175
H   73.707260   39.694126   20.749905
H   76.124039   11.183386   25.100014
H   11.628238   94.448601   14.470075
H   19.435190   90.927071   37.772842
H    7.566026   12.524069   63.437202
H    4.607602   23.947952   93.219635
