100
TIME:    4.798, STEP:  4798
H   92.853676   82.020332   94.753311
H   67.966255   64.862061   80.635498
H   62.227928   19.091228   67.025795
H   82.281937   34.973564   77.169075
H   52.195801   57.338364   35.610275
H   53.620876   96.010063   53.908764
H    1.507921   85.321548   65.662857
H   42.772957    3.690627   67.658363
H   35.683937   24.985367   98.069267
H   43.722984   85.275536   95.572876
H   53.956757   59.300465   77.581375
H   72.715874   64.189598   51.401924
H   37.896744   71.445595   48.268555
H   17.512585   90.287086   22.369753
H   38.862404   41.450439   20.136353
H    8.606361   92.078323   34.765564
H   38.280586   99.322098   10.169218
H    3.670017   61.361797   33.202099
H   19.998871   79.635803   16.140139
H   63.247826    3.925097   43.002754
H   79.556602   78.561554   27.018639
H   22.369278   50.453400   10.684219
H   21.683815   55.600395   95.072983
H   73.255295   94.226135   50.732384
H   57.979889    5.653397   71.974159
H   24.674330   84.815704   39.235996
H   48.342354   43.030285   95.165810
H   27.700813   80.394135   25.367960
H   15.499307   84.404259   30.367420
H   84.970291   72.089104   64.815804
H    4.885688   52.300938   29.776451
H   68.705879   19.949417   55.089149
H    8.321451   17.437796   30.038687
H   80.828156   34.014587   69.619133
H   61.506088   96.227951   16.893539
H   89.719864   61.228657    4.342771
H   39.989639   28.823383   86.529037
H   65.679817   71.149269   61.021786
H   42.548183   76.877434   79.350586
H   11.275824   63.011536   15.530603
H    7.342783   20.815123   55.384502
H    0.403572   27.194227   28.213930
H   52.568821   92.272125   48.037979
H   72.974289   93.177277   49.858742
H   40.464680   42.586174   66.688377
H   16.186932   54.431324    2.652239
H   79.219040   85.769005   71.523003
H   56.495655   44.787811   65.450981
H    5.282702   35.079174   53.081253
H   26.506115    3.759978   48.085091
H   43.178562    6.427280    4.005429
H   38.305641   18.520464   59.083412
H    8.396333   49.829163   24.208242
H   65.578026   28.920189   43.538292
H   58.771179   79.075447   41.156818
H   99.569595    7.486692   29.291565
H    0.425212   51.102531   12.317255
H   68.786514   23.775873   89.969101
H   68.683800   41.496765   43.138191
H   42.399807   96.577545   27.144051
H   62.362244   55.441494   40.305702
H   28.624594   83.282974   78.260651
H   99.796089   79.876022    4.457207
H   72.510536   67.899902   96.871887
H   22.762552   77.636322   42.386219
H    6.597084    3.750280   29.878531
H    2.615556   14.242547   98.708908
H   48.935143   91.939468   95.574745
H   96.032791    5.032639   59.311745
H   27.594141   89.467773   91.629913
H   69.674278   68.944031    4.591366
H   78.349640   92.288513    7.908450
H   94.152313   80.977333   38.728310
H   24.585949   45.752979   18.072594
H   93.502571   35.479992   65.118988
H   39.086449   15.079103   73.084091
H    2.581835   10.687206   75.903694
H   57.399090   36.990871   79.415871
H   91.595039   39.425488   71.217033
H   64.222198   47.644886    7.569266
H    4.761414   78.919174   66.754128
H    1.324239   75.562149   85.571434
H   21.358469   87.358826   86.881042
H   80.244141   22.734373   25.193993
H   18.706369   48.767952   82.640175
H   40.866535   85.293343   74.970840
H   87.602287   54.499237   52.330719
H   33.185898   21.155035   45.846153
H   55.255966   27.026915   88.949348
H   42.131092   11.871758   95.735077
H   20.376640   32.510372   34.786785
H   33.302311   56.334610   24.950079
H   93.014717   71.484718   90.041245
H   10.972192    4.266341   50.322445
H   73.636177   19.953697   26.338680
H   90.216690    6.264273   19.626244
H   81.759850   43.027935   61.251602
H   24.477316   57.089783   79.256996
H   80.147522   57.532589   43.154648
H   37.232929   55.507114   35.533710
