100
TIME:    1.291, STEP:  1291
H   30.016874    3.630102   97.964066
H   65.358727   74.742073   59.436123
H    1.946237   66.783775    8.181412
H   81.693298   79.460472   69.400505
H   83.607681   76.236870   30.700050
H    7.997127   99.809456    6.597321
H   85.308891   48.512890   91.410652
H   18.416245    0.290646   89.658485
H   21.892754   62.169006   18.822859
H   39.559532   34.920204   58.246185
H   80.169357   18.188419   15.394163
H    6.564854   88.402000    1.034765
H   61.140526   83.599983   96.814384
H   91.159157    1.096888   55.486706
H   96.203331   54.707767   88.715103
H   49.616257   98.815422   25.876450
H   20.272598   67.372879   90.898155
H   28.732368   31.919479   54.789841
H   65.367897   32.512550   31.377329
H   57.734459   78.398056    4.229920
H   87.666870   27.694206   22.204670
H   86.137260   45.803909    9.328324
H   68.507317   84.122597   95.412262
H   99.093605   52.165257   11.192881
H   83.410759   83.786903   46.087608
H   40.739407   89.141479   68.166504
H   50.754913   88.811783   25.584700
H   23.610794   16.699215    9.445659
H   39.242615   66.221588   96.146782
H   50.495632   58.887711   86.019676
H   66.886024   37.815048    7.253771
H   47.271641   16.844696   79.749748
H   61.295193   74.026680   14.100430
H   32.649666   55.410255   17.363607
H   48.681999   61.330452    3.342567
H   84.802002   85.898575   16.202185
H    3.623107   57.257179   10.191003
H   10.632801   35.325184   13.544386
H   92.681412   52.948952   18.390289
H   41.595589   91.323967   39.607327
H   47.015022    0.480610   72.759933
H   15.593468   69.800133   63.453465
H   22.360975   71.241684   94.723885
H   96.920799   34.406998    6.961528
H   44.670593   80.953903   66.584549
H   61.431812   87.540627   88.413765
H   49.711842   95.382080   38.654732
H   56.308361    8.675467   48.457684
H    2.769661   25.528801   92.975113
H   52.966190   50.399242   93.371178
H   43.446125   45.006081   67.028961
H   67.873116   43.944042   89.309769
H   35.659737   29.494385   27.890003
H   46.794697   86.141533   88.785416
H   37.983681   71.681610   11.361153
H   95.181564   11.175167   48.678116
H   78.094955   52.295799   78.772240
H   29.927567   54.968788   80.301956
H   92.095818   93.315903   12.372189
H   73.825211   27.018347   26.890465
H   41.138348   18.534912   13.739851
H   53.091034   15.928894   36.941406
H   61.801849   19.116978   44.990578
H   31.689539   48.817207   92.088737
H   83.564613   57.734959   15.789151
H   22.036964   78.093666   22.519346
H   83.988968   92.996460   29.392506
H   91.187447   91.370285   27.919867
H   21.244881   57.023300   79.263649
H   56.537537   13.076193   99.014648
H   81.036827    7.560938   46.663914
H   67.517288    8.679564   51.143242
H   22.816357   54.446827   28.645412
H    1.776204   67.683884   26.480629
H   24.416576   30.480639   99.263969
H   56.181385   90.313622    9.062240
H   84.169609   14.651449   13.877817
H   92.633850   66.306786   85.737091
H   23.433329   49.720554   32.083595
H   36.212540   38.643501    9.700366
H   36.145832   42.637646   57.148510
H   38.187962   52.658768   78.824661
H   99.483315   28.804228   52.861210
H   38.979473   22.634134   45.511421
H   89.468033   68.132553   22.604362
H   21.577991   56.477009   31.434349
H   53.377693    9.486717   85.102890
H   76.737717    1.934166   82.322716
H   82.474068   22.291262   17.637463
H   52.196640   56.161736   70.366051
H   76.855568   43.141651   60.725292
H   73.807884   92.601967   58.119522
H   68.117043   66.311691   18.790167
H   72.008461   91.541298   13.864568
H   34.272572   34.089828   45.751793
H    0.552862   44.750420    0.766915
H   60.128769   41.768185   62.942520
H   11.605260   27.229767   35.380562
H   47.211693   42.415287   36.909916
H   19.416885   45.543262   73.344063
