100
TIME:    3.364, STEP:  3364
H   89.829010   13.525312   96.066177
H    7.693998   87.135574   90.200150
H   37.578865   15.923663   83.852364
H   82.041245   94.052544   55.771984
H   65.040009   42.396938   74.492996
H   75.857185   97.563622   11.893864
H   76.662224   88.490776   53.522118
H   55.482529   79.630386   99.321953
H   70.934395   62.858505   88.335121
H   82.912041   64.685417   39.421173
H   87.343948    1.600552   15.712317
H   27.445969   92.310776   53.475639
H   29.278713   58.180725   90.774864
H   88.515648   94.707069   13.241390
H   21.419846   69.541306   89.067848
H   66.265289   17.501495   53.800148
H   53.594307    4.474052   79.626541
H   73.029015   31.109474   82.919617
H   97.663628   19.476557   40.590305
H    1.889099   34.377697   45.369377
H   64.652191   21.320305   65.935425
H   84.890305   48.549744   32.802582
H   40.829781   67.263023   36.103256
H    6.489486   77.027588   57.234631
H    9.268661   19.376976   61.383705
H   31.233511   27.374006   73.862740
H   71.998123    2.638584   66.720375
H   48.696903   13.459839   77.968559
H   84.317459   54.300247   98.154945
H   29.983280    7.580817   50.816711
H   48.450634   23.712191   43.229973
H   78.162270   59.565155   87.841743
H    7.312569   22.355858    0.852639
H   20.238319   65.432228   30.030285
H   97.150406    4.627460   29.572472
H   65.042229   48.745373    9.075025
H    2.450786   81.338364   73.535393
H   24.951843   97.384712   59.828403
H    3.075648    8.122225   18.315619
H   46.341961   97.256424    2.706350
H    5.346648   71.608963   21.600080
H   29.284019   62.838455   60.844681
H   40.216938   83.672852   44.458599
H   64.544891   69.151825    9.648391
H   64.852455   99.166565   43.977718
H   34.687405   27.079945   96.827736
H   68.015915    7.783059   57.754829
H   56.419071   30.018801   76.723198
H   63.359894   53.842239   10.281978
H   96.431847   81.942635   48.381130
H   43.287968   44.871277   88.886307
H   68.616837   51.585648   53.222584
H   78.657326   41.514343    7.492958
H   98.793541   52.322029   80.260895
H   72.946487   53.396858   28.959467
H   97.775345    8.996023   78.108307
H    9.515622   92.479698   75.931801
H   75.565910   59.199402   26.907280
H   55.587372   80.905655   53.227802
H   37.029259   86.356079   67.930428
H   71.904305   22.131218   52.111103
H   79.519676   96.630447   43.144859
H    2.441793   77.729668    2.790900
H   74.040154   60.093826   35.808430
H   65.847435   92.166695    8.843583
H   94.689461   75.038460   45.089737
H   17.668514   64.662109   29.476892
H   47.991341    9.927623   27.021254
H   24.563072    8.070732   49.249187
H   98.541321   17.341688   94.649506
H   15.209768   66.513222   21.795113
H   96.590378   39.880615    2.917617
H   87.652054   51.907864   75.496086
H   56.159756   36.498711    3.277324
H   24.363955   33.434109   56.412144
H    5.182440   23.173117   69.573944
H   72.385048   34.977318   50.543491
H   90.027161   30.756441    0.219791
H   22.829283   43.637600   55.215942
H   34.548531   25.742668   31.109512
H   76.708237   64.083786   81.047409
H   93.728622   66.197037    5.481554
H   30.639112   63.408325   50.304234
H   81.587570    0.023407   56.166611
H   88.530014   38.464687   21.650230
H   73.870911   32.619011   75.389526
H   91.828667   58.762718   83.951752
H   10.106524   35.964264   60.758125
H   25.496471    6.870451    0.677845
H   68.916565   70.872879   44.471817
H   61.691345   55.076847    4.503335
H   27.194818   48.497017   97.624870
H    1.093618   28.453627   79.147728
H   72.371773   17.283703   53.635017
H   98.427467   48.403576   93.388786
H   71.774185   62.890511   93.693779
H   95.584198   60.733639   43.723076
H   19.214911   44.880127    2.209507
H   48.460167   51.351177   63.267685
H   48.161106   92.308601   73.675491
