100
TIME:    1.224, STEP:  1224
H   34.547768    9.774277   98.025406
H   67.222450   71.109703   55.209774
H    0.794716   61.963451    8.968102
H   81.682053   82.220787   73.072746
H   84.207794   70.866524   32.516747
H    9.036079   99.882042   99.961967
H   88.820625   43.988529   86.171165
H   23.682312   94.494003   95.809898
H   23.539742   68.610764   23.040262
H   41.390541   33.958183   55.622353
H   86.401535   15.492536   21.847933
H    9.122234   85.043617    5.803767
H   65.402313   87.653557    3.473713
H   94.476646    1.303448   50.387791
H   95.388527   60.692028   91.935471
H   52.310120    4.675861   31.437973
H   25.659046   62.942062   84.797859
H   27.300583   35.177673   57.112595
H   64.324089   29.701632   27.847704
H   59.539398   79.821152   99.668297
H   91.642746   34.364456   24.023155
H   79.712883   45.715477   15.033359
H   69.401863   84.667503   97.329147
H    5.318683   51.361698   16.168991
H   85.807121   89.101021   45.593307
H   41.046619   91.138107   74.446732
H   56.532661   91.596634   24.255148
H   29.263817   13.571780    7.231040
H   37.785782   60.142765   99.313988
H   47.926495   60.545944   80.693291
H   64.250435   31.806753   12.555374
H   43.041203   18.695641   85.952278
H   56.575565   78.928795    8.064542
H   29.818810   61.550423   20.186029
H   50.347389   66.395119   99.262817
H   78.976715   80.635574   16.432722
H   97.196861   59.710793    4.911773
H   13.401934   36.551479    8.816452
H   95.693222   54.379204   24.812111
H   47.905975   97.596016   34.335636
H   51.593567   98.181435   71.181442
H   21.615044   66.793434   60.305683
H   21.783865   70.839905   89.884132
H    1.199233   33.283958    0.410637
H   50.482079   83.597672   60.850990
H   62.296200   86.262703   88.141823
H   49.004383   91.768112   38.082222
H   56.304783    7.985643   44.312099
H    0.811329   31.077545   95.647507
H   51.560986   49.379459   98.057579
H   43.451237   51.474419   66.322525
H   64.616966   50.161396   93.707870
H   34.269867   29.105896   31.781281
H   48.346096   87.234413   85.828812
H   43.317734   65.808273   10.792604
H   95.097733   11.245581   50.958954
H   73.847137   54.229042   72.400002
H   34.916687   61.296043   82.027664
H   86.811348   90.485046   17.515831
H   78.246826   21.868315   28.796104
H   36.911999   21.650490   18.963547
H   55.468994   16.552536   39.973152
H   57.257042   23.686066   49.587013
H   27.088758   48.452744   93.907478
H   80.905510   63.086391    9.549562
H   26.152901   81.424446   18.557783
H   89.364426   90.679840   26.157570
H   95.815575   87.538559   24.716879
H   17.905411   61.837494   83.465462
H   55.180382    9.706181   99.155731
H   83.164314   12.119802   47.467472
H   73.042007   10.903278   46.237549
H   27.185066   57.760738   30.363453
H    3.250829   71.923523   30.462639
H   21.186241   30.385305   94.184990
H   54.597271   86.019798   13.570371
H   78.086693   20.458590   12.692287
H   89.486069   70.687508   82.037247
H   20.221651   49.916843   31.336494
H   39.498337   42.292740   15.472363
H   34.834682   41.944500   53.144009
H   33.160610   52.221207   84.427078
H   95.243675   27.686045   46.479771
H   34.370258   16.900858   51.631142
H   92.730316   72.323120   29.099281
H   23.120190   54.015728   26.781685
H   48.902916   14.358162   81.908081
H   75.659149    7.298250   83.018929
H   81.083687   26.021521   18.185692
H   58.120071   58.918472   67.970711
H   74.113655   39.524105   59.310375
H   68.850563   87.562859   56.843132
H   63.818108   64.303818   13.606712
H   65.532967   87.477501    9.347108
H   35.430882   40.091469   44.212151
H   95.018936   47.396233    4.227631
H   65.446976   37.923168   66.795715
H   11.359260   26.659302   36.452484
H   50.403435   42.126476   42.522045
H   15.255966   47.264370   79.797066
