100
TIME:    4.823, STEP:  4823
H   91.163002   79.727699   94.730423
H   67.275795   66.216660   82.211731
H   62.657654   20.889763   66.732445
H   82.286133   33.943596   75.798836
H   51.971878   59.342224   34.932404
H   53.233112   95.982979   56.384693
H    0.197693   87.009552   67.617889
H   40.808006    5.853395   65.363060
H   35.069389   22.581726   96.495705
H   43.039772   85.634499   96.551727
H   51.631317   60.306400   75.173157
H   71.761818   65.442726   49.622368
H   36.301437   69.933830   45.784424
H   16.274811   90.210030   24.272333
H   39.166435   39.217316   18.934628
H    7.601103   89.891739   32.690369
H   36.270241    0.975686   12.445066
H    4.204616   60.145481   32.335400
H   20.388256   80.684464   17.457163
H   62.574341    3.394186   44.704872
H   78.073067   76.072845   26.340099
H   24.766052   50.486588    8.555237
H   21.350029   55.397072   94.357727
H   70.932526   94.525360   48.875580
H   57.085724    3.670708   72.158791
H   24.560366   84.076797   36.885189
H   46.186478   41.990971   95.661720
H   25.591381   81.561050   26.194414
H   16.042946   86.672478   29.185722
H   85.928925   71.470360   66.803261
H    5.869642   54.542645   27.798531
H   70.284401   19.258766   52.774773
H   10.082458   15.608744   32.290886
H   81.884445   31.723480   68.565895
H   60.884674   94.338150   18.415794
H   91.893097   63.186741    4.264116
H   42.387367   27.907761   88.498947
H   64.646416   70.691887   62.785892
H   41.492847   76.332695   76.927872
H    8.921106   60.671028   17.497557
H    5.634252   21.672857   55.973492
H   98.156700   28.316225   29.388285
H   52.784161   92.422043   49.843666
H   71.377838   93.596741   52.303085
H   38.296215   41.599884   68.827660
H   15.864378   54.908161    2.753865
H   79.414352   87.128563   71.762947
H   56.496990   45.045303   66.997841
H    6.013432   33.008747   52.083900
H   27.030445    4.140493   46.336624
H   43.176655    4.013626    4.268977
H   39.520622   16.200651   57.442139
H    8.914893   49.974121   22.756273
H   64.998955   28.512207   44.641502
H   56.780670   81.266609   41.369488
H   99.600876    7.460395   28.440506
H    2.010071   50.381172   14.695004
H   66.924942   21.414862   89.325180
H   70.655617   42.553055   41.218826
H   40.750141   98.499008   26.432991
H   63.939240   54.278965   38.356583
H   27.737391   83.050278   77.129593
H    1.493338   78.170090    2.742873
H   74.227150   68.036087   96.193253
H   23.754850   75.639709   44.714329
H    5.061382    2.507500   31.356726
H    0.609704   15.106814   99.915878
H   47.208229   93.369217   96.769890
H   97.278671    3.236303   57.743713
H   28.100637   90.725098   91.577271
H   68.880440   67.243057    4.291460
H   76.288177   91.458817    9.738837
H   92.522293   79.740608   38.087250
H   24.035679   44.170834   16.587246
H   94.708015   35.515659   67.014130
H   39.677536   16.681372   71.401810
H    4.851692    8.520363   76.345818
H   58.573635   35.356083   80.796410
H   92.793999   39.352055   71.495888
H   62.996155   46.283230    5.415512
H    5.250625   79.177811   68.248344
H    3.200080   75.725418   83.480980
H   22.939852   87.776917   89.261795
H   81.964188   24.873751   22.910706
H   17.489004   47.204117   80.216698
H   40.291088   86.211540   76.706909
H   89.271980   52.681534   53.522812
H   33.588348   19.153559   45.586182
H   55.774765   25.635027   88.744881
H   39.920666   10.843124   96.628860
H   21.399742   33.860203   35.314739
H   35.152058   58.214874   25.426344
H   94.617271   72.235069   91.974533
H   13.388564    5.782803   52.007969
H   73.203972   17.714279   26.913078
H   92.281586    5.277101   18.334969
H   79.775444   44.462643   59.813843
H   24.569059   57.302643   78.856834
H   78.956573   57.640354   41.060570
H   38.785702   54.865673   33.125301
