100
TIME:    8.403, STEP:  8403
H   49.061272   51.425896   91.452835
H   68.406113   60.211872    7.940645
H   24.210779   78.449615   24.701527
H   82.887024   86.446220   79.566231
H   19.900991   46.294758   37.864609
H   97.708374   92.104500   10.922900
H   12.569430   28.748652   47.578709
H   59.427063   15.568727   36.658379
H   47.066093   78.378433   71.149323
H   45.244209   37.039631   36.732155
H   18.628433    4.355635   30.330347
H   35.122490   44.889462   94.794792
H    7.918239   53.363190   90.040131
H   39.014473   79.175484   96.711281
H   82.668831   19.435440   46.799881
H   63.656876   76.771812   35.518829
H   48.387794   37.763622   38.346596
H   80.756744   85.949104    8.237663
H   76.143356   30.869511    6.065649
H   66.121719   27.367105   88.447945
H   65.630791   19.671833   29.172731
H   67.984138   55.239090    3.685212
H   73.550041   26.283850   91.929901
H   38.297981   37.352509   82.994385
H   29.044209   19.760025   98.598000
H    7.986475   78.383041    0.122037
H   37.478760   93.173721   66.699570
H   23.521246   48.663334   44.531570
H   93.885658   11.478090   59.957573
H   23.201229   82.865005   51.402771
H   46.767223   75.568443   44.560463
H   96.327965   20.346790   21.356239
H   62.254101   53.678703   54.805557
H   33.149475    3.637947   17.746271
H   71.828209   23.444969   36.297871
H    3.096425   43.589607   93.008644
H   85.755913   96.798103   70.588890
H   16.681232    5.171360   15.418204
H   90.378136   98.331688   29.998867
H   71.724060   25.522352   99.164734
H   60.965912   44.508652   40.315517
H   92.054733   74.555527    8.949216
H   83.603424   13.894903    8.431473
H   42.783627   53.689018    2.336413
H   27.758106    0.355425   75.178520
H   69.656487   23.186924   17.299410
H    7.387696   81.821541    6.126798
H   56.700497   81.918167   88.507591
H   10.660133   36.513466    9.274084
H    2.162735   58.632473   95.994347
H   42.924603   58.388176   42.007950
H   13.514328   84.003067   22.431938
H   83.171867   70.732178   14.838968
H   82.097076   70.105042    2.618269
H   71.735451   95.003281   71.816727
H    4.061686    3.694583    6.568848
H   28.965736   47.081535   55.182701
H    0.351492   83.327385   97.112083
H   53.002361   93.824745   66.388779
H    4.508418   73.671326   24.609276
H   89.767960   87.792969   59.230946
H    0.679017   49.728134   15.145018
H   44.540585   33.877838   57.251526
H   20.058346   87.537735   98.995636
H   65.854645   89.710266   78.103577
H   85.139442   24.535179   43.035297
H   13.379942   38.875690   72.758835
H   99.912903   98.113274   67.914597
H   75.707306   46.000343   33.211311
H    0.685311   70.703934   84.020981
H   55.197567   23.660435   61.353920
H   81.300400   72.587303   71.981674
H   59.099945    2.665422   46.298130
H   45.224445   17.594387    3.876404
H   67.252121   40.688183   38.422672
H   24.308580   46.126770   30.514433
H   29.954823   98.498657   39.770638
H   26.765882    1.272836   78.510376
H   64.465660   28.836460   11.433735
H   87.434685   51.268456   96.995354
H   75.317894   16.215250   82.218765
H   71.849808   98.965210   84.008842
H   49.383408   47.646030   30.202351
H   28.262703   31.222475   95.933617
H   43.174377   23.262928   33.176308
H   57.899326   17.709255   25.313187
H   28.372225   92.385597   24.230766
H   91.172386   32.657410    8.451973
H   30.071915   26.306368   59.465096
H   23.400461   63.556206   24.604498
H   67.908073   27.168812   10.918113
H    0.035805   27.465027   93.639351
H   24.101856   79.649437   68.821472
H   59.382278   22.973133   93.400215
H   11.307621   97.039383    9.178921
H   87.974915   63.906616   33.423210
H   95.612053   49.909584   53.924568
H   22.057581    2.241107   10.190222
H    8.413535   73.088387   41.198475
H   61.152508   62.996105   88.252350
