100
TIME:    5.347, STEP:  5347
H   55.726479   31.674126   94.250687
H   52.803749   94.609055   15.250583
H   71.668106   58.588455   60.581600
H   82.374084   12.353642   47.076263
H   47.278458    1.343127   20.725800
H   45.105579   95.415291    8.277227
H   72.732811   22.392292    8.595445
H   99.622635   51.184681   17.249615
H   22.188469   72.201111   63.513771
H   28.720102   93.158363   17.071615
H    2.890112   81.390808   24.699726
H   51.762360   91.708290   12.323923
H    2.863824   38.247246   93.716972
H   90.329735   88.594917   64.150398
H   45.538933   92.412155   93.746460
H   86.532089   44.060928   89.193085
H   94.133095   35.633053   60.146851
H   15.409627   34.651493   14.171347
H   28.549770    2.664812   45.061993
H   48.458099   92.264931   80.381264
H   46.978157   23.906441   12.117916
H   75.002441   51.182205   63.931839
H   14.353639   51.135414   79.365967
H   22.244255    0.793917    9.957948
H   38.344025   62.117004   76.028664
H   22.171679   68.589310   87.610031
H    1.000671   20.208027    6.058043
H   81.377205    6.019569   43.516891
H   27.436684   34.213322    4.417263
H    6.021534   58.501488    8.460037
H   26.492798    1.531918   86.341316
H    3.370158    4.782058    4.265473
H   46.993145   77.270531   79.496941
H    4.024467   83.702141   46.490028
H   47.859833   54.727921   50.322258
H   37.442829    4.228340    2.615906
H   92.646027    8.716309   29.787884
H   42.990200   61.103947   99.765434
H   19.373005   64.914970   26.148012
H   59.564976   11.614733   58.726192
H   69.822174   39.650978   68.318703
H   51.062584   51.834984   54.002758
H   57.297680   95.564316   87.693367
H   37.919346    2.391975    3.537825
H   92.843163   20.927246   13.667621
H    9.103022   64.902664    4.883944
H   83.508102   15.625882   76.792183
H   56.524975   50.442337   99.420021
H   21.329079   89.611572   31.179470
H   38.020405   12.116110    9.688766
H   43.136677   53.425293    9.792941
H   64.986626   67.578629   23.041046
H   19.784267   53.012451   92.323479
H   52.865295   19.960907   67.764793
H   15.058788   27.190207   45.827038
H    0.255382    6.909198   10.602310
H   35.228233   35.261482   64.531639
H   27.906597   71.929436   75.828598
H   11.983833   64.693062    0.990565
H    6.172861   38.776638   11.529182
H   96.993073   29.912186   97.502403
H    9.141611   78.172958   53.420837
H   37.068089   42.413742   66.810608
H   10.208049   70.890518   81.969070
H   44.554626   33.787823   93.511513
H   72.871361   76.457909   62.339699
H   58.568787   33.222675   25.215847
H   11.011985   23.338202   21.820120
H   23.395407   65.585014   24.877777
H   38.715538   17.080372   90.473877
H   52.241585   31.590652   98.005775
H   33.082787   74.068375   48.104591
H   58.357071   53.820427   24.650635
H   12.502018   11.007793   85.453300
H   19.972075   36.263248    6.736554
H   52.066727   50.265999   36.144352
H   52.428432   63.104847   85.612724
H   83.192108    1.092640    9.733617
H   17.921856   37.812901   77.340675
H   37.299637   17.741882   60.272400
H   15.504124   84.598831   99.567131
H   42.518387   79.146957   39.664536
H   56.085632   96.540100   39.165188
H   18.015375   69.713425   75.050659
H   91.974159   14.426181   29.420616
H   28.229717    5.457530   13.095243
H   24.268774   14.582474   78.509079
H   42.023460   77.201782   40.137642
H   66.648788   96.460304   84.459236
H   93.591736   89.284958   15.360312
H   42.843956   62.152653   46.380657
H   73.922752   97.625214   35.408859
H   28.206347   87.956947   32.496296
H   64.033974   37.569408   87.339195
H   64.144951   70.778648   38.953617
H   35.561890   84.584808   91.269257
H   38.182304   74.534111   29.678406
H   26.492002   61.764191   70.469444
H   53.994293   59.899113   97.168968
H   71.332718   41.421062   82.647369
