100
TIME:    9.593, STEP:  9593
H   68.586578   42.297646   90.363358
H   35.540207   24.694363   82.974663
H   44.665722   64.062721   10.732660
H   83.086761   37.419731   14.337102
H    9.237730   41.678238    5.600899
H   79.259888   90.815285   28.772457
H   50.200077    9.102595   40.638271
H   65.895416   18.518749   27.396179
H   17.813622   63.964111   96.241829
H   12.738771   54.126270   83.325478
H    7.937530   52.236191   15.700941
H   89.702415    4.538153   10.089088
H   32.035980   81.336800   71.781097
H   80.093750   75.507576   87.271416
H   97.122566   13.138771   89.573265
H   15.809116   72.690048   36.738342
H   52.695045   16.473824   46.676987
H    6.207678   28.043373   66.983963
H   94.682632   80.791763   68.757538
H   34.063244    2.095766   69.468651
H   95.014008    1.203939   96.872726
H   82.070602   56.818832    2.345727
H   57.661827   16.610197   57.883728
H   27.729511   51.588348   94.614349
H   86.484238   25.387489    7.382831
H    2.373231   43.301865   88.137932
H   34.863640   43.707714   90.304916
H   23.112459    4.208517   83.866203
H   19.761883   19.444044    3.706414
H   68.831306   53.412796   46.004280
H   93.599937   82.278412   50.411469
H   71.465225   87.467514   11.191978
H   46.075981   66.612869   62.010155
H   83.428864   94.581566   67.613609
H   42.212578   33.345253    8.698035
H    6.540761   36.798450   89.268105
H   99.892944   53.219002   64.356216
H   67.493568   83.398247   99.393517
H   40.148907   72.402122   14.679516
H   59.639240   14.117883   92.791824
H   79.638092   85.341568   68.351402
H   91.767830   79.222397   69.698235
H   93.844513   21.034851   94.385582
H   66.805702   73.667458   18.686375
H   24.533880   53.414066   77.012650
H   54.300591   45.882610   22.133966
H   16.691624   46.540821   17.554468
H   56.773129   94.174789   62.137653
H   45.441704   37.957760   61.807472
H   27.140265   76.751427   12.789951
H   44.697086   43.641243   51.706116
H   71.348785   73.580505   44.315468
H    7.850628   77.632202   45.726509
H   54.536415   50.687958   55.128548
H   76.985786   99.288956   81.930710
H    5.543829    2.442819   66.058426
H    4.407412   12.744619   68.361565
H   11.741591   70.946556   66.461449
H   46.859371   44.109383   75.031319
H   25.980038   65.139236   90.762856
H   64.838287   32.452686   66.456123
H   58.443596   38.651779   61.304329
H   25.329754   52.675003   75.650009
H    1.773496   94.020126   66.692627
H   13.084788   94.665474   88.922661
H   12.036615   65.377159   13.397798
H   17.904160   80.016083   30.212883
H   17.711823   66.171333   24.803482
H   35.016068   60.494537   58.577862
H   24.853821   30.475908   81.497025
H   17.403530   42.690014   47.081764
H   83.306694   33.075584   59.207684
H   81.510635   43.800686   15.783680
H   19.031590   42.278965   33.169502
H   24.574862   42.440426   28.649191
H   52.444336   22.393688   50.441467
H   38.032173   95.501144   60.879265
H   82.668617   23.465981   44.236214
H   21.533216   25.341053   24.715502
H   29.075233   86.442726   94.475807
H   98.614555   28.526346   53.343971
H   61.145760    6.689219   84.453209
H   24.651506   67.547157   43.532284
H   10.132619   33.053421   87.245171
H   85.232330   48.819527   17.820307
H   30.508045   61.423058    7.950253
H    7.849700    5.862685   80.974388
H   10.310036   37.435768   96.116440
H   54.767094   60.049263   49.732430
H   18.188551   14.593269   67.140976
H   16.608419   91.424622   36.048729
H   88.083755   16.964842   16.312418
H    0.383432   15.351835   60.846001
H   72.535561   95.027756   76.487816
H   90.732574   90.446785   36.521584
H   86.264038   16.915277   71.957932
H    1.155479   18.200989   85.485626
H   19.760599   61.120487   86.296288
H   51.724571   78.227089   41.523655
H   35.069397   32.463497   73.616379
