100
TIME:    7.722, STEP:  7722
H   95.115227   13.876847   92.076309
H   87.214249   23.307400   65.003494
H   12.505053   29.455074   32.695210
H   82.772720   14.503902   16.893177
H   26.003244   91.709694   56.329834
H    8.268952   92.842278   43.481766
H   48.259418   82.764221   94.323608
H   12.952324   56.652157   99.184715
H   63.806374   43.854630   14.014111
H   63.844521   27.261477   10.066109
H   81.973404   76.954086   95.927612
H   61.116165   10.754454   43.268288
H   51.343452   94.583878   57.714985
H   72.734032   81.274513   44.888271
H   74.397408   80.265732   79.550323
H   91.037781   36.334717   92.047150
H    3.149671   92.721619   76.352478
H   66.198624   19.086273   31.843525
H   65.533905    2.298940   70.185516
H   84.472641   41.827343   42.082253
H    6.042282   87.467651   47.653942
H    2.695999   54.335052   61.678650
H   82.642372   31.819780   11.414233
H    1.572396   29.205782   33.570648
H   53.400948   73.767532   93.568642
H   11.197475   98.458908   64.208931
H   96.201981   21.482008   53.186810
H   80.981499   16.876547   22.020109
H   79.078148   49.692066   92.149620
H   97.089615   99.719589   97.265892
H   19.964197   14.502653   98.439018
H   53.329037   39.160122   84.399864
H   14.283876    3.504532   93.455696
H    4.374175   66.047493   46.435181
H   88.776314   75.006279   94.863876
H   43.897694   90.248688   95.149239
H   20.439613   21.739286   16.928556
H   44.827309   17.634518   67.360298
H   19.123173   13.168085   95.993523
H   35.867523   89.275452   45.585739
H    7.507937   21.143957   24.271452
H   49.445885   71.884979   74.180931
H   77.742767    9.809849   59.240528
H   86.267929   42.255882   35.751743
H   86.829353   27.222004   16.902431
H   78.447472   10.200477   14.532743
H    2.064044   44.787178   99.586906
H   56.658932   74.904083   46.371136
H   90.753059   92.914558   36.440117
H   87.864990   48.267216   43.610329
H   42.971363   24.134470   34.827606
H   80.417557   47.194798   67.135590
H   69.050179   66.783508   54.389137
H   97.870972   81.213272   72.567032
H   25.958069   35.323921   66.028809
H    3.213501    4.410929   29.751694
H   85.793182   66.731361   90.413826
H   51.059494   47.639961   14.653644
H   99.291542   65.051414   18.668015
H   49.445648   21.326435   43.978539
H   46.810589   19.463203   12.328774
H   24.849068   56.066788   45.958839
H   98.306679   80.347443    3.949738
H   73.296562   83.828064   17.485706
H   38.822205   44.101246   14.685161
H   26.972908   58.389824    2.768835
H   68.017944   15.332544   39.880962
H   46.954460   59.166924   35.358856
H   41.766129   94.932671   75.923035
H   86.854561   36.500164   85.465363
H   76.823845   69.997284   69.521431
H   37.379566   95.198631   22.066031
H    3.501747   36.350773   63.760601
H   60.213802   60.692905   44.338135
H   34.446991   39.685429   86.789001
H    8.207990    2.480062   76.336067
H   68.105186   57.442726   27.691751
H   94.773926   45.799282   40.897297
H   31.811125   30.836773    3.833845
H   20.830994   88.365166   55.663979
H   61.985939    9.169991   41.516296
H   20.749535   94.548935   40.981632
H    6.308066   36.257236   65.348312
H   81.410194   72.947388   58.130947
H   76.332809   65.862022   99.191826
H   73.571335   92.695709   78.022263
H   82.889702   41.900169   91.758034
H   80.220024   87.152039   15.512817
H   15.937238   64.223595   65.034798
H   83.610413   91.571060    0.261074
H   40.038776   90.397530   96.536301
H   49.648701   76.247696   80.660698
H   80.448639   59.219051   16.158693
H   93.567696   81.657677   47.481350
H   23.083488   58.040794   93.530487
H   31.727158   90.799133   68.597542
H   49.666100   10.829383   93.089134
H   23.372072   68.542534   23.862490
H   40.854668   70.147667   98.238045
H   18.854982   80.473862   53.856190
