100
TIME:    0.391, STEP:   391
H   90.881020   86.164680   98.788040
H   90.393822   25.944118    2.664667
H   86.482361    2.034341   18.748886
H   81.542236   16.540857   18.730875
H   91.668900    4.097894   55.103432
H   21.953197    0.788095   17.467337
H   32.478596   87.739632   21.029482
H   89.154465   22.428730   72.294395
H   44.016472   48.700378   75.475792
H   64.155174   22.000195   23.000673
H   63.885162   81.975342    2.086744
H   40.917728   43.289391   65.097206
H   18.391212   38.051453   86.266624
H   35.721836    3.871724   86.995140
H   85.258202   35.097519   31.976919
H   85.802475   77.538033    0.583475
H   92.630745    7.854448    8.954700
H    9.500009   75.686264   85.991013
H   51.352791   94.755051   83.962021
H   82.065376   97.333954   42.862831
H   41.074051   17.291763   46.630028
H   99.839333   44.616013   85.962715
H   80.523613   91.442238   21.163227
H   82.713379   41.371189   78.036255
H   15.599234   55.165279   39.445816
H   44.866146   15.958980   52.524536
H   28.362036   26.223228    7.725063
H   99.550133   74.689743   79.699265
H   19.673218   84.566734   38.688904
H   15.986421   81.162491   14.472057
H   31.482576   57.105461   78.471458
H   90.445435   41.708130   63.067253
H   97.898743   39.874413   33.021324
H   94.622520   37.889801   55.278847
H   71.052910   29.363693   48.536865
H    6.550763   15.200735   19.298956
H   17.301338   90.216164   39.274487
H   47.828636   51.797810   50.032383
H   33.142025   72.161293    4.650637
H   26.365940   75.579613   68.798149
H    8.521877   69.595360   51.552288
H   96.480309   29.405764   21.169836
H   14.609056   65.844650   29.715790
H   54.391235   19.324282   18.961819
H   22.739460   16.464882   89.566101
H   72.957741   70.554497   84.851601
H   40.208668   46.833813   30.964300
H   56.260296   99.408813   92.770828
H   76.458061    0.067484   28.876421
H   34.090305   36.700665   56.316772
H   43.514790   31.895449   57.539524
H   24.134413   27.456730   48.394287
H   16.989847   24.275879   80.161934
H   67.633194    0.822314   49.069843
H    9.631485   92.781784    3.723953
H   94.055466   12.121021   79.316238
H   21.039886   78.264732   93.174706
H   96.944275   39.961708    3.483376
H   21.114555   55.289474   81.466614
H   33.216576   57.842392   52.488609
H   84.365036   60.385956   83.910156
H   85.033783   24.305984   77.664047
H    0.753532   80.490074    6.733860
H   69.889595   43.921425   16.524229
H   47.842209   29.615314   31.973932
H   77.325661   22.835346   69.304832
H   56.198112   61.878155   85.939377
H   53.356773   39.899338   84.894661
H   76.390434   21.691551   35.709797
H   38.307098   67.811180    0.908551
H    9.615946   68.800941   57.457981
H   41.727184   38.549065   85.249001
H   81.497620   98.967445   51.723568
H   21.584740   24.636114   79.970314
H   81.022995   29.200045   31.038818
H   34.902241   32.631668   69.619247
H    2.454805   92.655144   97.952209
H   50.350220   25.153862   36.033825
H   80.294685   52.356815   22.048244
H   80.350113   87.659813   87.236237
H   18.533375   33.326733    3.358130
H   70.660973   46.781082   54.084846
H   42.535526   13.783605   67.140686
H   77.067535   45.619968   27.716621
H   33.291748   24.426277    9.849360
H   42.294086   23.415920   68.935463
H   93.268715   74.924034   42.187542
H   62.249496   73.989647   91.674828
H   63.797310   72.401985   25.001736
H   31.766476   93.197937   38.189846
H   40.023899   94.544846   41.718945
H    7.216781   24.912813   40.973984
H   10.371441   39.346535   49.163780
H   85.019417   36.949577   53.180950
H   49.831959   14.705738   25.071182
H   26.216614   80.291191   47.253349
H   31.566236   90.119209   14.702250
H    8.300778   19.566803   49.779518
H   90.085838   38.535740   12.300091
H   63.523907   68.661232   60.027206
