100
TIME:    7.096, STEP:  7096
H   37.448318   71.283669   92.649429
H    4.502831   89.385384   25.530357
H    1.744375   84.418922   40.045475
H   82.667648   40.295929   51.207691
H   31.612658   41.533031   73.303741
H   17.977612   93.520470   81.487137
H   81.068253   40.493954   45.369595
H   62.154686    2.496835   56.663490
H   79.194649    4.041862   53.419804
H   80.942604   18.273043   85.554848
H   40.202393   51.765461   56.226196
H   85.006302   79.376526   87.828377
H   91.261269   32.473072   19.925861
H    3.730109   83.204018   97.247963
H   66.794014   36.183128    9.656857
H   16.208706   91.086792   44.011230
H   53.489021   51.315151   19.365229
H   52.812275   49.547607   53.540916
H   55.785336   76.040115   37.206333
H    1.341103   55.118954   99.461327
H   43.190018   49.788673   64.642357
H   42.680771   53.504028   14.988297
H   91.000374   36.910912   29.326319
H   59.738075   21.717012   80.063370
H   75.790840   23.411545   88.945473
H   14.149044   16.911171   23.117373
H   50.183384   47.505470   40.764431
H   33.802094   87.657005    1.327240
H   65.466545   92.896889   21.740118
H   73.085434   15.214104   47.499962
H   95.326912   58.366875   47.966072
H   13.802919   56.454021   42.351784
H   70.190681   49.304955   37.060677
H   77.924477   23.416550   72.808258
H    4.355814   22.403236   56.779137
H   89.481071   41.218262   97.116951
H   60.396912   44.665161   67.602386
H   70.700142   29.092144   23.186699
H   45.548786   26.805956   56.657089
H   94.829750   47.879910   96.332748
H   50.289993   99.666023    9.523685
H    2.201632   69.430115   42.223186
H   72.355438    6.054718   14.026073
H   26.240307   31.748678   74.544304
H   41.130272   51.918705   63.334053
H   86.528465   98.262192   11.989523
H   97.172165   10.742352   93.578697
H   56.620724   68.456482    7.638025
H   72.451424   44.758770   61.413826
H   74.721436   38.739094   87.379829
H   43.014347   84.570297   28.228539
H   49.994183    5.282232    8.228536
H   56.066090   63.153748   90.744057
H   12.366829   91.424362   44.942642
H   75.800705   80.464745   60.705387
H    2.433819    5.069420   51.062210
H   46.106770   84.794197   30.876198
H   97.673264    6.757514   30.779711
H   49.922768   38.597332   66.724800
H   90.756371   73.210968   61.783470
H    7.321383   48.573959   61.134819
H   47.067024   61.893509   74.283569
H   55.808903   23.064846   46.876434
H   30.308907   80.417999   34.483494
H   13.974402   94.098328   56.388691
H   65.428955   89.510246   65.754745
H   18.243166   93.690033    9.656665
H   90.196373   23.365446    5.432433
H   10.564722   39.913025   15.183173
H   74.147179    5.049243   86.790985
H   96.701561   12.590007   77.029305
H   88.920845   15.994838   76.181801
H   44.319077   67.313080   79.808167
H   73.996025    0.314189   81.533630
H    4.293515   38.763660   39.325108
H   93.409706   62.361279   18.458986
H   11.250897   11.623211   16.589937
H   65.363312   86.730415    6.324130
H    1.793494   32.675533   96.849327
H   51.530258   22.466961    9.594434
H   49.730949    2.693659    4.100829
H   73.774147   90.489334   93.353157
H   66.714378   25.788244    5.729805
H   38.343060   19.379196   15.307697
H    6.813246    5.024735   59.874748
H   87.975754   69.704041   34.551102
H   41.080585   87.415459   61.908028
H   70.152214   37.244762   22.003403
H    2.944359   99.078850   70.154671
H   38.957020   17.326473   77.880768
H   14.420307   56.594040   83.316330
H    3.331041   29.166023   68.730247
H   40.320683   40.435040   67.749153
H   33.067757   43.678917    5.271378
H   33.907875   14.112679   79.145172
H   80.022079   15.518811    0.931104
H   99.355614   74.904663   29.092030
H   24.580400   37.569469   36.429695
H   70.676018   67.444450   50.673580
H   79.970634   96.540329   14.159686
