200
TIME:    0.160, STEP:   160
H    7.012903   62.740498   13.971626
H   27.251242   31.710220   86.649498
H   19.814480   65.636566   41.407768
H   15.145844   76.038704   46.591675
H   16.059528   81.701660   54.808708
H   92.221130   54.986320   67.917595
H    2.200194   55.360893   48.102901
H    1.095867   85.431793   27.911991
H   84.179573   88.705566   49.671017
H   13.677364   76.019493   99.227974
H    9.405209   92.885201   90.433594
H   30.446991   39.887527    8.930402
H    9.210673   84.352852   64.570488
H    8.185116   52.869411   38.410824
H   23.484327   71.328743   43.175430
H   31.632236   29.262569   56.048775
H   80.443985    3.971743   19.316174
H   38.461899   79.321213   44.944622
H   62.363682   32.598156   41.306160
H   89.801735   80.803307   40.571918
H   57.124992   72.764725   29.505634
H   91.810036   45.756508   73.657578
H   97.400841   63.123123   51.055763
H    6.921114   87.340828   91.836586
H   99.769249    9.486423   48.264965
H   18.727316   58.786167    9.598761
H   97.346687   57.191532   45.865311
H   92.674347   66.829262    0.520772
H    7.699151   58.961372   38.806808
H   96.664536   18.621248    1.393180
H   13.465939   48.106968   16.097004
H   33.380825   61.631332   91.633522
H   29.056282    7.264118   72.201981
H   99.074257   63.490639   36.891983
H   51.827549   93.106674   34.827610
H   35.674477   51.745987   78.559120
H   83.968323   76.155685   85.354347
H   36.872120   42.685917   18.764397
H   56.031067   49.265301   42.653374
H   90.849960   40.017467   66.821381
H   80.480507    8.960861   98.868790
H    9.357378   44.784439   42.203270
H   78.142288   89.619698   47.357700
H   37.459488   59.348763   15.887160
H   26.043699   73.854355   41.476952
H   42.185585   15.920483   41.817822
H   78.466583   30.131554   94.424858
H   92.063454   65.551826   50.523636
H   83.986496   31.788052   61.108654
H   64.980148   17.440481    9.097029
H   80.111313   71.508690   31.039204
H   24.196283   34.321026   61.821365
H   50.019478   96.711662    6.881586
H   23.597237   80.495468   80.518471
H   80.585129   78.164108   93.360634
H    6.331198   74.320885   76.028595
H    5.658793   16.442726   50.512745
H   66.534653   56.719654    6.747341
H   29.869242   72.932053    5.191595
H   44.953571   96.438393   68.473114
H   50.678612   16.937227   44.573845
H   88.499313   16.235369   48.453083
H   69.243332   23.549212   87.583893
H   22.187714   65.038200    1.881348
H   70.062363   74.886444   14.658239
H   41.877823   13.453125   31.425308
H   89.163429   24.849457   84.182289
H   97.789421   91.268044   85.687691
H   13.676937    4.772162   62.992378
H   45.697475   40.235638   50.986866
H   58.500259   75.208466   71.141449
H   34.388721   25.924646   45.324825
H   74.954727   24.280041    2.174467
H    5.259086   10.723115   58.243832
H   78.170914   99.576515   71.374313
H   51.291664   21.901005   63.400238
H   95.765717   26.971987   73.277168
H   29.518345    4.513182   50.703133
H   10.922344   26.129126   36.710308
H   69.481537   91.113113   98.055573
H   39.972713   31.454130    2.321099
H   23.118851   70.028847   90.330376
H   11.311831   12.788768   92.620415
H   27.282862   59.243629   91.244110
H   41.757034   98.477905   60.049347
H   22.413338   88.573395   29.448166
H   32.269707    2.617407    1.587923
H   75.996773   21.521791    8.424764
H   63.240936   71.851692   76.875191
H   23.844826   82.461342   55.745632
H   44.596397   34.202183   81.110321
H   84.612679   87.833557   96.622238
H   43.459339   17.764351   98.008270
H   63.615208   97.307793   66.908012
H   23.097771   58.008354   64.607872
H   72.585060   25.920662   32.823093
H   78.220390   17.046202   94.883789
H    9.093943   27.195576   47.836124
H   38.830650   70.579422   52.597740
H   65.813438   96.627335   27.230875
H    6.296970   78.214478   65.172707
H   87.597450   75.446243   66.305885
H   21.521070   40.093536   29.384830
H   18.031755   67.791779   86.985489
H   25.444788   28.524063   22.493847
H   84.255989   30.689661   47.636192
H   61.868633   29.103434   56.631546
H   65.222389   31.202782   21.835020
H   70.763481   41.099480   95.264183
H    1.796863   29.175806    5.145724
H   46.141991   96.761971    0.739565
H   82.781677   61.333275   89.599907
H   58.483505   79.346313   95.675484
H   63.495171   21.122047   77.016968
H   66.519936   78.637268   29.577682
H   17.303310    8.137705   75.325378
H   35.864124    7.316207   83.247482
H   41.176998   23.058796   35.577629
H   15.824164   54.710072   87.493515
H   68.671425   45.078182   46.358444
H   39.719612   21.227818   90.141289
H   21.740940   29.375172   45.834953
H   30.307684   25.196590   21.655951
H    5.255977   70.197853   21.368469
H   79.310173   10.932839   95.459007
H   44.791439   60.163403   27.076033
H   97.375160   48.816391   74.144363
H   77.178551   86.942528   34.326916
H   91.483223   55.379482   86.713387
H   63.867630   24.528526   65.138695
H   45.379585   88.042145    0.354109
H   84.770683   85.257919    7.440400
H   92.698982   78.702522   96.780060
H    4.843389   10.951794   48.722290
H    0.474019    2.816630   60.093033
H   64.488815    1.729523   84.860191
H   68.760269   86.360664   51.356117
H   90.535973   66.718483   84.462410
H   44.222168   43.214859   71.569008
H   43.404610   12.926829   97.680389
H   46.657085   65.421448   12.325791
H   60.921158   38.580101   44.381962
H   57.577217   55.288517    2.082559
H   61.378853   29.423660   76.798744
H   36.541561   72.420273   46.452579
H   43.008919   60.597252   33.677650
H   42.839165   97.128136   47.854710
H   44.836891   76.396599   69.283958
H   63.046604   68.132126   98.739746
H    6.904468   87.790787   92.991096
H   79.040047   59.951305   51.948139
H   30.419825    9.323278   50.659348
H   72.459320   34.829922    6.273095
H    7.795100   99.306351   77.929451
H   10.440235   51.766308   59.305763
H   61.127220   43.330540   51.599716
H   58.473858   58.484600   79.808517
H   44.908676   37.943466    7.849893
H   16.043226    2.035769    5.571644
H   64.576393   60.207977   75.171005
H   53.170120   87.659508   85.542961
H   47.360210   23.470882   36.237030
H   61.775753   38.057800   37.265316
H    8.338202   17.829502   74.621643
H   59.720177   19.373823    9.038488
H   10.535369   66.984413   62.739140
H   76.277397   98.860909   51.373615
H   23.562328   27.292732   44.704609
H   92.985924   28.430372   37.045837
H   22.822136   11.063428   91.304230
H   80.893311    4.682434   35.982788
H   48.926613   68.418304   57.212448
H   36.127228   80.891739   92.675003
H   72.208214   76.462006   72.390945
H   75.156128   95.638351    2.992799
H   98.437332   47.228722   23.209993
H   36.239582   50.422066   83.561409
H    1.020983    9.124565   63.857250
H   77.647469   23.239305   70.070511
H   90.106071   53.596947   85.256462
H   82.878387   82.322594   43.579346
H   17.614050   30.008389   66.695633
H   69.318008   90.248764    4.486663
H   49.738976   25.072176   74.247169
H   84.488419   91.804230   78.726425
H   97.585625   35.548721   83.553810
H   28.566534    5.894921   97.492691
H   94.264435   63.835896   22.727322
H    8.935120   60.816654   65.629105
H   48.158798   58.708492   64.692276
H   43.998554   33.671135   79.872749
H   48.308739   82.755127   25.643370
H    2.323489   15.620795   55.973633
H   36.501270   60.338028   31.701010
H   87.639969   57.828640   22.077972
H   75.132828   10.187141   30.662411
H    8.929511   83.378014    0.766561
H   31.234472   98.996147   49.222878
H   12.980128   11.388048   81.594948
H    8.842163   37.703007   98.860245
