100
TIME:    1.326, STEP:  1326
H   27.650064    0.420450   97.932022
H   64.385139   76.639580   61.643917
H    2.547771   69.301857    7.770435
H   81.699173   78.018517   67.482170
H   83.294189   79.042274   29.751030
H    7.454358   99.771538   10.063555
H   83.474403   50.876362   94.147697
H   15.665314    3.318536   86.445061
H   21.032387   58.803909   16.619738
H   38.603035   35.422752   59.616844
H   76.913742   19.596729   12.022791
H    5.228909   90.156380   98.543434
H   58.914307   81.482445   93.335533
H   89.426140    0.988983   58.150318
H   96.628975   51.581661   87.032822
H   48.209015   95.754204   22.971176
H   17.458782   69.687485   94.084877
H   29.480316   30.217438   53.576462
H   65.913170   33.980942   33.221165
H   56.791580   77.654648    6.612852
H   85.589920   24.209747   21.254715
H   89.493279   45.850105    6.348064
H   68.040016   83.837944   94.410904
H   95.841728   52.585026    8.593422
H   82.158928   81.010872   46.345825
H   40.578922   88.098465   64.885788
H   47.736687   87.357010   26.279242
H   20.657722   18.332897   10.602561
H   40.003647   69.397095   94.492271
H   51.837719   58.021469   88.802116
H   68.262825   40.953705    4.484249
H   49.481571   15.877776   76.509621
H   63.760670   71.465874   17.253508
H   34.128471   52.202705   15.889202
H   47.812019   58.684731    5.473724
H   87.845062   88.647903   16.081755
H    6.980026   55.975441   12.948810
H    9.186239   34.684582   16.014202
H   91.108078   52.201805   15.035626
H   38.299118   88.047523   42.361195
H   44.623245    1.681546   73.584518
H   12.447868   71.370796   65.097824
H   22.662451   71.451569   97.252113
H   94.685768   34.993660   10.383636
H   41.634743   79.572830   69.579544
H   60.980267   88.208199   88.555824
H   50.081409   97.269974   38.953804
H   56.310230    9.035822   50.623287
H    3.792665   22.630203   91.579086
H   53.700253   50.931965   90.923058
H   43.443455   41.627098   67.397995
H   69.574089   40.696171   87.012253
H   36.385788   29.697327   25.857246
H   45.984264   85.570625   90.329910
H   35.197235   74.749771   11.658155
H   95.225357   11.138384   47.486633
H   80.313965   51.285896   82.101021
H   27.321232   51.663506   79.400467
H   94.856361   94.794708    9.685211
H   71.515411   29.708662   25.894981
H   43.346142   16.907372   11.011017
H   51.848816   15.603052   35.357658
H   64.175980   16.730141   42.589455
H   34.093048   49.007599   91.138649
H   84.953697   54.939434   19.048639
H   19.886848   76.353706   24.588820
H   81.180893   94.206635   31.082397
H   88.769768   93.371933   29.593069
H   22.989380   54.508423   77.068672
H   57.246498   14.836647   98.940948
H   79.925453    5.179441   46.244144
H   64.631241    7.517921   53.705917
H   20.534195   52.715679   27.747929
H    1.005884   65.469147   24.400475
H   26.104065   30.530439    1.917244
H   57.008907   92.556664    6.707227
H   87.347252   11.617868   14.497124
H   94.278214   64.018349   87.669846
H   25.111071   49.618015   32.473991
H   34.496078   36.737183    6.685129
H   36.830761   42.999737   59.240414
H   40.814190   52.887344   75.898026
H    1.697928   29.388353   56.194798
H   41.387272   25.629129   42.314552
H   87.763855   65.943451   19.211494
H   20.772366   57.762753   33.864845
H   55.715263    6.941933   86.771820
H   77.301147   99.132019   81.959023
H   83.200386   20.342619   17.351074
H   49.102310   54.721649   71.617348
H   78.287910   45.031414   61.464428
H   76.397530   95.234337   58.786293
H   70.362755   67.360580   21.497972
H   75.391182   93.664177   16.224434
H   33.667484   30.954643   46.556084
H    3.443749   43.368279   98.959106
H   57.350601   43.776775   60.929657
H   11.733768   27.527771   34.820602
H   45.544365   42.566158   33.978207
H   21.590500   44.644176   69.973091
