100
TIME:    8.687, STEP:  8687
H   29.855339   25.381861   91.192825
H   60.562485   75.600647   25.847736
H   29.092463   98.882050   21.367985
H   82.934692   74.745781   64.000313
H   17.356146   69.058609   30.164246
H   93.305542   91.796822   39.048645
H   97.685097   47.926537   69.787880
H   37.105225   40.137493   10.581679
H   40.084831   51.073074   53.272350
H   37.487251   41.117451   47.851906
H   92.211456   15.782609    2.974033
H   24.282249   59.124996   74.579033
H   89.808411   36.174377   61.816238
H   24.952822   78.300117   18.324238
H   86.118294   94.067177   33.142868
H   52.238113   51.932213   11.943781
H   25.550270   56.547161   64.200233
H   86.827972   72.129585   98.393143
H   80.567856   42.784458   21.027081
H   58.470333   21.335962    7.783902
H   48.777824   91.398651   21.464525
H   95.211494   55.616104   79.500000
H   69.758232   23.975180   83.804596
H   11.909983   40.749969   61.903042
H   18.887577   97.236938    0.695076
H    6.646883   70.010727   73.397354
H   12.988848   81.369278   72.333115
H   99.558441   61.919498   53.920090
H    0.060893   37.244289   46.532402
H   34.090431   75.836075   73.980286
H   57.945477    1.036344   22.091286
H   14.259655   12.500753   95.064995
H   82.257706   32.899590   80.390518
H   45.148926   77.611023    5.782521
H   64.760277    1.942225   53.577686
H   27.783270   65.835434   92.115944
H   12.995675   86.397713   92.967064
H    4.943386   99.973778   35.458458
H   78.391685   92.143456    2.477909
H   44.974930   98.934990   21.509283
H   41.556183   54.252518   47.006435
H   68.120834   75.669235   23.448009
H   86.047516   15.598509   28.944279
H   24.650112   58.458031   30.103298
H    3.123318   89.153267   99.480766
H   65.990349   28.602711   18.453203
H    9.608146   97.266121    8.854006
H   56.717831   84.843277    6.079762
H   18.960945   12.993416   97.945038
H    8.124001   62.955135   76.138268
H   42.905102   30.970104   45.002396
H   27.317499   57.650555    3.788450
H   89.061089   72.378906   98.344711
H   75.518829   65.472534   15.149657
H   49.123268   19.891756   74.230484
H    4.415407    3.395843   96.900803
H   46.969246   38.886894   82.193382
H   79.204041   56.507378   89.797142
H   75.402199    5.824846   44.585030
H   85.766441   95.499146   16.531639
H    7.682870   74.584473   37.088947
H   90.599297   47.084702    2.294595
H   63.822475   14.497508   37.776794
H   39.560581   89.084793   91.286346
H   77.126068   67.028748    4.551036
H   67.692787   10.416863   59.827595
H   90.593857   48.693226   86.470016
H   80.295166   14.356072   81.491440
H   89.860504   25.593910   15.398495
H    6.453387   84.969803   83.418625
H   46.177395    4.336017   57.947792
H   57.913086   63.157616   92.799789
H   40.582916   88.616478   39.015690
H   38.973377   99.620216   87.001961
H   80.932968   41.106365   59.955814
H   31.023333   64.329582   11.404929
H   55.747879   73.919067   44.808327
H   40.106976   82.703804   94.197632
H   78.085838   28.002262   14.603146
H   73.506828   35.797874   72.528435
H   80.877769   19.153360   99.193069
H   93.161942    0.807774   60.248627
H   67.347511   52.395542   57.249866
H   47.800476   55.524757   69.993309
H   29.346191    5.497440    5.646441
H   51.362247   28.141064   45.034927
H   47.339939   71.736488   37.772942
H   95.739891    9.931511    5.507173
H   35.965824   10.494335   57.142342
H   98.290848   51.870934   34.756500
H   79.530510   42.502888   16.915672
H   21.048929   48.824600   99.051888
H   42.306873   88.169090   90.783630
H   86.830276   40.203114   12.549553
H    6.396775   71.601761   15.704624
H   11.432220   52.691528   18.754326
H   73.069206   66.207863   37.591621
H   21.509394   16.293457    4.488424
H   94.884544   74.314766   17.409748
H   78.793823   55.709332   60.894741
