100
TIME:    2.528, STEP:  2528
H   46.363678   90.190910   96.831558
H   30.949379   41.809151   37.465412
H   23.208838   55.778305   93.661995
H   81.900925   28.497316    1.594087
H   72.527985   75.387863   97.161026
H   88.817635   98.469322   29.101908
H   20.478344   32.040329   88.145744
H   21.190483    7.306712   76.081886
H   91.484871   43.236557   40.958561
H    5.757853   52.681694    6.682042
H   65.106628   67.962112   96.239960
H   59.355972   50.406174   12.983389
H   82.455925    8.759895   73.865776
H   29.909386   97.283852   49.622746
H   11.249847   44.215851   29.253172
H   99.878265   90.620880   23.195654
H   20.820007   49.177681    3.521756
H   55.166977   71.763954   11.903351
H   84.639397   84.405991   96.548401
H   24.410431   52.128155   88.450661
H   14.261520    4.546317   88.628967
H    4.742172   47.439941    3.995727
H   51.991585   74.062157   60.021408
H   84.162903   67.001099   19.322128
H   39.167473   85.680176   55.213730
H   35.067432   52.281368   52.221764
H   44.086746   37.391064   50.131794
H   19.236887   74.438210   50.335155
H   66.139664   78.452034   37.671654
H   97.928810   28.272263   84.357597
H   15.547780   48.745480    9.372013
H   25.376503   82.665672   65.234444
H   48.426991   83.522041   25.539160
H   84.914879   42.046585   65.250381
H   17.932266   67.822693   78.665581
H   92.353836   83.072441   11.949693
H   22.267437   11.954798    7.661820
H   59.502411   12.684475    0.836360
H   38.365601   26.335100   99.330643
H   25.084425   75.520851   36.931858
H   62.478771   42.924625    1.903523
H    4.418938   25.315659   21.568735
H   33.015980   78.659607   84.073326
H   17.929255   55.141319   27.908747
H   37.370411   32.148998   72.438698
H   45.472897   11.134510   93.434547
H   61.482212   62.319000   49.724709
H   56.374424   21.411455   24.996208
H   38.925110   23.080700   43.631645
H   78.904625   69.224556    6.853839
H   43.351749   25.581678   80.071671
H   27.988188   29.159302    8.102497
H   61.320465   36.666931   56.048386
H   18.151699   65.964027   43.369537
H   39.506531   80.123444   21.856764
H   96.729324    9.875143    6.567719
H   56.514767   16.602943   96.421181
H   37.816498   38.149490   48.440750
H   89.655159   45.583324   17.406923
H   92.197342   22.098196   91.708260
H   19.168787   61.006420   17.293568
H    9.189953    4.412710   80.970947
H   45.705776   34.763100   60.127609
H   16.632177   55.546188   58.508350
H   32.662151   58.937809   30.988573
H   46.046120   16.598518   95.660439
H   84.742073   35.762455   89.113602
H    5.739485   62.116272   87.055618
H   82.897575   68.140373    1.679733
H   81.600891   75.294991   96.409882
H   41.757698   23.394667   31.824791
H   65.520935   67.625671   41.710175
H   42.161713   93.262077   96.926750
H   74.557793   89.402603   52.961998
H   84.056297   32.241390   93.037094
H   85.421471   69.594963   25.827610
H   96.480682    7.436270   35.758884
H   50.750362   85.421196   54.053173
H   82.739197   46.093197   45.884674
H   75.547432   71.274994    3.131805
H   60.353176   55.434978   31.080856
H   31.002304   60.737320   75.387550
H   77.748062   49.452881   70.679413
H   24.073627   28.485811   32.524933
H   29.237301   90.756073    2.691265
H   93.107483    1.911202   17.335384
H   35.994133   19.546738   44.088165
H   96.650970    2.896760   69.455574
H    8.145367   53.416954    7.517600
H   42.829487    5.264969   14.588290
H   27.478821    9.936952   86.848465
H   65.337479   85.629204   81.692192
H   47.485050    3.381828   14.488045
H   91.568275   66.576042   97.269081
H   12.882839   23.286568   74.177727
H    2.724014   95.903938   36.874603
H   61.941544   12.757123   91.801750
H   16.147009   37.762085   15.586132
H   88.285484   47.747509   33.291573
H   96.238632   13.769537   54.203278
