100
TIME:    7.826, STEP:  7826
H   88.082024    4.339730   91.981094
H   84.341934   28.943325   71.560623
H   14.292711   36.937241   31.474251
H   82.790176   10.218838   11.192417
H   25.071329    0.045753   53.509888
H    6.656053   92.729607   53.781631
H   42.809162   89.786316    2.456553
H    4.778130   65.649315   89.636253
H   61.249855   33.855484    7.467685
H   61.003944   28.754763   14.138527
H   72.299576   81.138779   85.909424
H   57.146500   15.967268   35.865334
H   44.711739   88.288589   47.380207
H   67.584496   80.953957   52.803005
H   75.660591   70.975937   74.548370
H   86.856262   27.238525   83.414337
H   94.786568   99.600891   85.820007
H   68.421890   14.025682   28.238453
H   67.154144    6.662061   75.665131
H   81.670151   39.619152   49.163063
H   99.870796   77.114624   44.831615
H   12.666581   54.473114   52.822083
H   81.253822   30.974352    8.438571
H   91.909607   30.449923   25.846661
H   49.681221   65.520340   94.336708
H   10.707119   95.392990   54.421654
H   87.234329   17.158857   55.250591
H   72.205864   21.730917   25.457762
H   81.339500   59.127857   87.233360
H    1.077466   97.145615    5.533498
H   24.057245   23.828518   90.210869
H   59.895687   36.287014   74.772057
H   21.609514   95.895424    2.824841
H    8.768538   56.516487   42.053711
H   86.188057   67.132011    1.191021
H   52.938343   98.394318   94.822334
H   30.414558   17.930296   25.123381
H   40.529152   15.731043   74.699776
H   14.733033   10.902369   85.915031
H   26.072056   79.539734   53.768661
H    0.400447   24.712133   26.721647
H   40.681358   72.292816   79.490746
H   78.637787   10.433704   66.752480
H   79.626694   44.001488   45.919895
H   77.807747   23.119038   25.802242
H   77.104942   12.183722   14.955259
H    2.877040   50.442940    0.585447
H   56.665279   75.975250   52.806072
H   93.793587   84.300789   32.291130
H   90.048584   49.850163   36.338295
H   42.964222   14.093668   35.924164
H   85.471878   37.543980   60.308685
H   71.206795   67.386536   48.349342
H   95.462036   79.516861   77.156387
H   17.677155   44.438362   66.912720
H    3.343033    4.301531   26.211288
H   92.386810   63.730507    0.305066
H   43.315353   37.818550   11.974734
H    7.494005   69.445580   10.683853
H   42.583038   29.320515   41.020531
H   53.370892   14.626743    4.220239
H   21.157906   55.098770   41.252846
H    5.367215   73.250763   96.818146
H   80.437675   84.394592   14.661887
H   42.950562   35.794544   24.370493
H   20.584389   53.219658    8.918324
H   59.673950   18.928059   44.901958
H   39.770500   65.114677   40.330658
H   46.949783   87.459892   69.400818
H   88.966743   41.723492   85.244781
H   73.521477   62.921234   68.274117
H   28.815636   91.745506   29.689169
H   96.720810   31.206728   61.093792
H   57.924679   54.111179   38.158691
H   39.456879   39.838566   94.674377
H   10.666715    9.145580   69.337776
H   77.550499   48.440956   29.536142
H   99.660034   38.999355   46.641132
H   36.798004   30.531292    4.994474
H   15.731038   82.699883   46.704262
H   64.021950   10.245919   47.732239
H   28.553581   95.223373   32.281376
H   12.886247   37.996494   75.252243
H   88.565590   81.846802   48.632473
H   71.268967   59.356243   89.110161
H   71.178268   96.515411   85.244308
H   89.835625   34.338524   96.717140
H   81.892632   78.830261   14.434509
H   18.095837   58.432945   64.184212
H   74.415833   87.292740    3.978708
H   44.294880   96.013618   98.732590
H   57.343647   84.069595   82.642754
H   87.115265   62.339718   24.201174
H    3.619033   87.967247   54.493923
H   21.285118   48.724815   95.920380
H   40.317123   86.692200   63.225838
H   41.410973   16.797543   87.108055
H   23.171328   73.688896   21.774508
H   35.900322   70.596764   89.527473
H   25.314516   77.804672   43.837208
