100
TIME:    7.438, STEP:  7438
H   14.320850   39.920448   92.336319
H   95.057877    7.917272   47.095440
H    7.623348    9.023723   36.029835
H   82.725052   26.205425   32.460209
H   28.548090   68.945839   64.030457
H   12.673409   93.149956   15.355850
H   63.142811   63.588451   72.114441
H   35.274162   32.083401   25.261131
H   70.787636   71.159988   31.890865
H   71.601479   23.183657   98.945534
H    8.390381   65.526657   23.284033
H   71.954819   96.519318   63.484047
H   69.453133   11.773735   85.938560
H   86.796227   82.149879   23.274960
H   70.947945    5.633995   93.209503
H    2.456752   61.174316   15.621815
H   25.987495   73.935913   50.498837
H   60.126011   32.905792   41.687080
H   61.110821   90.385788   55.223225
H   92.125595   47.857403   22.746195
H   22.895248   15.740532   55.361065
H   75.468643   53.958038   85.863892
H   86.434181   34.129448   19.540316
H   27.960150   25.808321   54.663940
H   63.558662   96.288712   91.471230
H   12.536526    6.830322   90.933601
H   20.691500   33.287651   47.551098
H    4.945392    3.620388   12.632480
H   72.902916   23.925440    5.574442
H   86.199539    6.749035   74.688377
H    8.786677   89.035553   20.908119
H   35.397030   47.005917   10.691109
H   94.279305   24.282621   67.870735
H   92.374519   92.074471   58.399963
H   95.844246   96.509087   77.586227
H   19.210327   68.004852   96.041939
H   93.200150   32.140747   94.550751
H   56.564583   22.832546   47.319679
H   31.111790   19.355234   23.514694
H   62.616028   15.862422   23.240492
H   26.916590   11.400090   17.580534
H   73.379784   70.771271   59.681698
H   75.298676    8.106243   38.727924
H    4.403176   37.489037    7.984084
H   11.464771   38.426258   92.599434
H   82.113609    4.784529   13.378950
H   99.844040   29.342411   96.861137
H   56.641598   71.978973   28.798809
H   82.450081   16.435329   47.770042
H   81.902100   43.944553   63.468575
H   42.990864   51.552811   31.833221
H   66.615372   73.548172   85.778290
H   63.160648   65.136780   70.882423
H    4.447746   85.845779   60.034561
H   48.570541   10.435304   63.614704
H    2.859779    4.709669   39.419724
H   67.787506   74.926003   63.403145
H   72.206955   74.459969   21.969568
H   76.893364   53.049984   40.470497
H   68.186333   99.496582   52.056175
H   28.895727   32.670563   34.470863
H   34.928780   58.710220   58.809822
H   79.026955   99.726837   23.424469
H   53.794697   82.281006   25.197163
H   27.549042   66.784668   88.237236
H   44.419250   72.508354   85.976456
H   90.803467    5.514399   26.169321
H   66.572197   42.924980   21.782013
H   27.610764   15.339081   93.733704
H   81.086678   22.236460   86.067719
H   85.841850   89.320343   72.927559
H   60.765278    4.628572    1.249311
H   22.019815   50.397800   71.041077
H   66.465721   78.667847   61.212769
H   20.767035   39.267246   65.255859
H    1.493567   84.279198   95.446785
H   42.312214   82.022896   22.655146
H   81.431091   64.369118   25.212206
H   18.193113   31.670971    0.664406
H   34.757980    3.835944   80.130898
H   56.426064    6.231881   24.541992
H   99.438759   92.707199   64.740089
H   88.345085   31.507727   38.300903
H   61.870693   48.645138   84.070763
H   90.160995   83.629356   26.721788
H   80.106247   82.264984   58.300522
H   63.921986   62.549278   78.215858
H   75.652519    9.877363   18.457428
H   10.042600   80.036522   67.357552
H    8.719235    3.254772   90.107727
H   28.416340   75.061287   90.538742
H   28.635576   54.887894   75.248161
H   62.243626   50.697231   94.196541
H   66.119331   64.427696   28.331690
H   27.994423   83.478928   87.004242
H    8.269942    2.014091   83.266426
H   72.208946   94.531464    9.422395
H   23.920259   54.490475   29.564287
H   54.383842   68.921288   22.026592
H    1.215054   87.762802   81.214355
