100
TIME:    4.029, STEP:  4029
H   44.857086   52.541473   95.457352
H   89.204811   23.188852   32.146721
H   49.009567   63.766365   76.049248
H   82.152863   66.655388   19.319429
H   59.083664   95.699623   56.461609
H   65.547737   96.843178   77.751823
H   41.810184   33.395100    5.526025
H    3.214844   37.161427   38.264744
H   54.587425   98.921356   46.476231
H   64.738594   74.233833   65.463409
H   25.487259   28.357883   51.655331
H    2.063035   25.643381    6.140804
H   86.968369   17.948597   24.680496
H   55.588326   92.657356   63.850025
H   29.509617   10.141022   57.103405
H   39.527695   59.338005   98.598572
H    0.118817   48.456966   40.164116
H   87.234947   98.770210   59.864506
H    8.021381   47.375992   75.624832
H   83.969872   20.255903   90.645714
H   25.190140   55.118397   47.888275
H   48.644501   49.432541   76.171722
H   31.951073   61.854622   17.075462
H   44.703758   85.003204    7.843854
H   85.484406   66.640656   66.294899
H   28.181772    7.559793   11.532667
H   14.653292   74.997574   79.911598
H   92.586792   44.499802   99.947166
H   98.777069   14.634545   66.719246
H   55.482727   91.121666    3.682926
H   74.623009   83.343590   90.617287
H   20.150557   41.193840   26.279320
H   54.155529   73.701607   60.761093
H   48.336685    4.488981    2.016580
H   80.620789   54.358635   70.065216
H   22.869535    0.984150    6.779582
H   66.231644   56.985336   25.934622
H   97.467247   85.218346    6.757629
H   75.008331   93.633598   53.872078
H   83.706429   35.001633   55.028423
H   59.898041   94.429779   37.267193
H   69.517563   92.681259   92.087585
H   45.944973   87.660660   92.492882
H   22.079893   80.293335   74.668457
H    7.170130   72.926178    0.882667
H   26.108036   39.763813   99.526863
H   73.211227   43.948997   64.142311
H   56.454586   36.867355   17.869576
H   82.801559   98.768707   83.756042
H   10.377719   92.059288    1.871852
H   43.237232   80.669365   95.897949
H    0.935262   89.878159    9.564709
H   92.447227   45.370239   68.872597
H   83.390251   41.469711    9.605475
H   19.998947   11.679850   34.615108
H   98.607407    8.295874   55.470139
H   51.671925   73.291542   39.178947
H   26.048088   96.397987    9.776909
H    8.036123    9.003536    2.174179
H   93.146896   37.470707   49.016243
H   13.852819   91.205345    0.264141
H   55.917534   90.440720   13.053775
H   47.589642   32.351860   57.189842
H   19.703260   63.711266   17.751675
H   92.240028   39.054417   70.772255
H   53.837257   41.979225   84.409729
H   64.314316   87.655426   61.582500
H    2.055058   47.960403   58.812099
H   57.708557   60.288086    7.539812
H   12.014311   50.790474   93.249207
H   94.092751   21.266724   13.816959
H   41.757538   17.810684   51.606945
H   44.293518   19.016056   58.447311
H   41.517498   94.416115   63.764519
H   56.424305   34.382862    6.823176
H   20.904604   65.795250   24.829292
H   32.761734   77.340134   62.303974
H   21.270077   87.274254   36.946754
H   54.716530   41.684284   62.638542
H    1.935339   89.525856   73.819298
H   89.716812   70.963516   20.792734
H   43.625938   70.539993   49.875244
H   72.712990   74.509247   13.642315
H   27.339304   56.929390   95.430527
H   56.150635   96.867516   57.186035
H   58.567287   57.048141   21.569366
H   36.242531   10.411812   15.661926
H   20.809172   82.722862   53.842880
H   39.297714   69.843971   95.238777
H   10.120465   43.512512   68.242294
H   88.905853   90.986153   18.546915
H   76.401627   98.503471   10.297243
H   43.720146   48.407890   30.573282
H   36.646107   57.622551   98.473854
H   86.930809   88.836082    8.669587
H   26.700500   36.629829   59.345863
H   42.799011   98.896858    5.477264
H   21.655287   50.542206   91.565971
H   16.780937   54.217731    7.565208
H   89.467979   75.241188    9.613332
