100
TIME:    2.687, STEP:  2687
H   35.610992   75.609764   96.685989
H   26.526512   50.430466   47.495106
H   25.941893   67.217590   91.796288
H   81.927612   21.946112   92.879211
H   71.103836   88.132416   92.849762
H   86.352669   98.297066   44.848705
H   12.145275   42.777245    0.579755
H    8.693398   21.061937   61.483547
H   87.576347   27.949402   30.949554
H    1.413229   54.964699   12.908717
H   50.316833   74.359863   80.923691
H   53.286964   58.376068    1.665947
H   72.341316   99.139969   58.062309
H   22.036537   96.793770   61.723156
H   13.184093   30.013269   21.610201
H   93.485367   76.714203    9.996805
H    8.034574   59.693535   17.996561
H   58.564796   64.031822    6.390537
H   87.116493   91.075470    4.925232
H   20.127068   48.752171   99.276131
H    4.826284   88.717804   84.312851
H   19.985657   47.651016   90.455429
H   49.868706   72.769020   55.472382
H   69.390091   68.908051    7.513067
H   33.480583   73.069061   56.386772
H   34.338375   47.544315   37.319153
H   30.375446   30.781137   53.286999
H    5.821129   81.859795   55.591404
H   69.596924   92.877907   30.155600
H    4.025474   24.337051   96.997826
H   21.804873   63.003033   96.792061
H   35.415901   78.271919   50.515007
H   59.627300   71.888664   39.863136
H   91.632881   27.475143   58.551788
H   13.979621   55.803558   88.348335
H    6.178277   95.562248   11.403203
H   37.517372    6.131437   20.190245
H   52.931190    9.774311   12.056286
H   31.653664   22.871168   83.922180
H   10.108423   60.636162   49.442287
H   51.613270   48.379818    5.650294
H   90.128899   32.452171   29.038237
H   34.385540   79.613083   95.558708
H    7.776430   57.806442   43.454445
H   23.578604   25.876194   86.044533
H   43.421589   14.167194   94.079903
H   62.725613   70.965790   51.251968
H   56.382915   23.048498   34.834236
H   43.572395    9.912785   37.288483
H   82.238152   71.643425   95.733063
H   43.339619   10.230837   81.748138
H   35.715153   14.405293   97.664360
H   64.618584   37.588867   46.813255
H   14.470020   63.370178   50.385956
H   26.848106   94.061661   23.205702
H   96.928268    9.708042    1.154984
H   66.594505   12.014834   11.543573
H   25.976898   23.133705   44.345413
H    2.195721   52.301327    5.200369
H   81.704254   34.319912   87.185921
H   29.199087   53.612736    4.896895
H    3.547340    2.932457   73.777420
H   56.491215   23.920195   49.219650
H   27.550447   56.411110   54.191021
H   38.973774   46.238140   45.796524
H   36.278450    8.694130    5.061598
H   71.985390   41.258892   96.789932
H   94.756157   71.209473   94.656738
H   90.821373   56.715645   91.708107
H   84.822815   83.291573   96.075073
H   36.708885   12.575965   29.917233
H   52.411110   62.348801   53.352043
H   31.794771   85.396507   92.850822
H   71.059288   79.341370   43.512154
H   91.722923   32.468235    5.090391
H   89.179573   79.784782   15.128931
H   10.916784   93.655411   38.570789
H   58.220470   75.025154   62.834614
H   90.364578   45.626163   47.659401
H   67.749794   62.615879   89.433823
H   63.464710   57.079906   40.584019
H   42.932884   61.775711   62.092262
H   87.806870   52.107086   85.823425
H   35.011913   42.091644   18.002014
H   21.494858   80.811295   87.277992
H   89.448853    7.751572   28.376781
H   46.613380    7.986145   51.669876
H   99.210556   90.166824   67.800941
H   11.445234   44.563942    6.216730
H   28.771317   98.723099   20.272072
H   33.985748   18.522480   90.206253
H   77.101868   97.585258   84.722450
H   57.687000    8.145882   26.789181
H    6.935948   76.219978    7.989671
H   10.133408    9.043869   77.831505
H   15.856811   89.625069   28.662094
H   49.320724   21.881756   82.657600
H   16.730497   39.115875   13.042013
H   80.711052   48.432896   19.973236
H    6.113083    9.685421   38.889435
