100
TIME:    4.506, STEP:  4506
H   12.600124    8.798185   95.020645
H   76.030830   49.038239   62.224884
H   57.208733   98.084221   70.452126
H   82.232925   47.003593   93.173470
H   54.811218   33.933273   43.527817
H   58.149960   96.326408   24.990179
H   16.811268   65.605667   42.828075
H   65.723579   78.427826   94.467506
H   42.861855   53.059891   16.449961
H   51.702904   81.082848   84.139893
H   81.117889   47.551136    5.709122
H   83.859245   49.553062   72.187141
H   56.529922   89.103004   77.283203
H   31.969784   91.187111    0.147636
H   35.311317   67.533325   34.172672
H   20.347893   17.617973   59.003845
H   61.761421   80.007217   83.587303
H   97.426704   75.570183   43.325146
H   15.450851   67.387451    0.757194
H   71.116142   10.126131   23.122019
H   96.884300    7.630203   34.943565
H   94.374954   50.065765   35.550735
H   25.582436   57.975212    3.427402
H    0.385245   90.724060   72.418991
H   68.423737   28.811203   69.817665
H   26.005430   93.446136   66.693642
H   73.522148   55.169476   89.373573
H   52.338062   66.764557   15.714992
H    9.149568   57.911465   44.170631
H   73.773453   79.316032   41.602303
H   93.394112   26.117550   52.878563
H   50.268749   28.016220   82.121071
H   87.753883   38.801476    3.733021
H   68.490692   60.774719   81.920952
H   68.764206   18.301231   99.113480
H   64.336502   38.358234    5.261453
H   11.983381   39.517075   63.520496
H   77.749947   76.491493   40.417019
H   54.874508   83.239983    7.647646
H   38.778648   90.346519   92.556946
H   27.298161   10.796781   48.505108
H   26.647537   14.089118   14.497198
H   50.053654   90.521088   26.947290
H   91.620834   88.285065   21.307890
H   65.792503   54.106041   41.701557
H   19.954113   48.861866    1.465217
H   76.937790   69.889366   68.720451
H   56.480061   41.780304   47.383659
H   96.747055   59.261761   64.730194
H   20.381939   99.315895   68.507668
H   43.200840   34.618660    0.927189
H   24.115282   45.616436   78.251831
H    2.339325   48.136047   41.167843
H   72.341576   33.685417   30.652912
H   82.020325   53.483585   38.672840
H   99.204239    7.793848   39.231934
H   81.912369   59.528008   84.545479
H   90.529678   51.351707   97.490097
H   45.654755   29.159046   65.556221
H   61.667904   74.134857   35.449226
H   43.942932   69.020653   63.071419
H   38.987877   86.000870   91.471405
H   79.973274   99.801315   24.480522
H   52.459206   66.309265    4.799686
H   11.172509    0.956813   15.193210
H   24.534248   18.266060   12.613286
H   26.043982    4.147799   84.611496
H   69.105492   75.240005   81.615456
H   81.480911   26.013901   77.624695
H   21.678263   74.782227   92.244781
H   78.946312   88.811401    8.094284
H    2.427364    1.979439   86.530205
H   13.191633   95.422279   46.215889
H   31.014706   64.232414   35.422264
H   79.422981   35.063396   42.983730
H   32.182549   96.364708   92.733139
H   76.071091   35.996113   70.739693
H   43.680401   56.085201   63.291077
H   77.591194   40.283184   67.960014
H   78.542389   63.549030   32.725212
H   99.047775   75.898300   49.301678
H   79.416115   73.655167    9.988375
H    2.887995   82.475525   59.073460
H   60.154419   97.746895   51.862785
H   32.925125   67.033180   10.946191
H   47.587757   74.568794   54.693558
H   68.100273   75.730011   38.407074
H   28.486109   44.532875   48.882622
H   49.196396   43.284935   91.337532
H   67.948532   23.886192   85.295685
H    8.426810   16.743271   28.620279
H   11.695781   34.374741   19.386499
H   74.296883   62.720947   67.460434
H   82.749924   86.555161   30.635447
H   78.684334   46.110100   19.629711
H   66.098709   17.794594   34.708336
H    4.937589   26.270550   78.044632
H   23.405752   54.603577   83.930885
H   94.057800   56.273891   67.613152
H   19.096544   62.999149   63.663929
