100
TIME:    5.836, STEP:  5836
H   22.657427   86.831291   93.802994
H   39.298347   21.107557   46.084415
H   80.077271   93.769653   54.839939
H   82.456161   92.206329   20.271469
H   42.898529   40.538559    7.467894
H   37.520916   94.885521   56.705639
H   47.104855   55.413372   46.835880
H   61.188202   93.490524   72.352379
H   10.167915   25.185898   32.731155
H   15.359407    0.179694   36.220737
H   57.404526    1.066878   77.595970
H   33.097298   16.218876   77.516380
H   71.659653    8.675659   45.127373
H   66.117012   87.087685    1.361263
H   51.485786   48.732254   70.242584
H   66.870911    1.291017   48.602264
H   54.810738   67.975594    4.662450
H   25.866934   10.858688   97.220253
H   36.165127   23.180216   70.823975
H   35.284737   81.878456   13.674585
H   17.960197   75.225525   98.845543
H   21.883347   51.831360   22.288940
H    7.823864   47.158409   65.375565
H   76.809959    6.643771   73.641922
H   20.855347   23.335609   79.640053
H   19.942541   54.133743   41.626328
H   58.834961   99.880325   15.760946
H   40.117008   28.844444   59.682335
H   38.069389   78.579681   81.301666
H   24.771034   46.398857   47.333572
H   45.739326   45.380695   47.653191
H   34.245731   91.270355   58.996300
H   81.437492   41.492409   23.549925
H   24.686817   38.888084   25.889250
H   35.704971   17.762693   80.099579
H   79.951263   42.529579    1.078057
H   39.547363   90.807739   68.319313
H   22.780598   52.153820   34.271717
H   98.731445   54.259880   78.760689
H   13.507822   65.837425   97.198448
H   36.401901   56.428268   79.839333
H    8.387717   64.489014   77.896782
H   61.509724   98.496704   23.014801
H    6.696240   10.599997   51.348602
H   50.425457    1.634745   55.512798
H    2.792758   74.229599    6.870581
H   87.328415   42.219986   81.485497
H   56.551090   55.478882   29.676504
H   35.621674   49.111664   11.672912
H   48.276302   19.559004   75.486008
H   43.100864    6.215077   14.947938
H   88.751656   22.201923   90.938881
H   29.928242   55.847839   63.924816
H   41.542397   11.981252   89.343590
H   76.123802   70.044876   49.986851
H    0.864477    6.394817   93.955582
H   66.227501   21.151695   11.039673
H   91.495270   25.749662   63.233505
H   50.548943   85.354088   63.451500
H   73.902206   76.362961   97.620872
H   27.840313    7.171616   59.374348
H   91.786873   73.621414   31.293617
H   70.267540    9.044611   33.278412
H   43.787537   73.554291   68.694977
H   63.965843   94.732285   39.050648
H   42.831169   52.148186   91.253197
H   19.335365   50.126812   48.824722
H   77.233253   51.304661   45.197147
H   47.768551   30.448586   94.208252
H   48.620743   41.676231   89.444183
H   36.714104   98.319168   92.140999
H   92.762466   57.839508   83.906754
H   26.473553   29.633820   12.111504
H    1.738686   80.058067   56.398033
H   43.547787   36.960903   43.806778
H   63.628395   81.606133    3.241326
H   96.825615   20.720022   94.260658
H    6.166224   69.119835   36.740471
H   41.369770   36.376553   82.795067
H   13.322214   91.104713   18.144421
H   25.073511   89.657761   28.792658
H   79.219559   82.318115   98.759148
H   87.014702    4.717566   85.734695
H   51.656540   11.558048   30.388645
H   68.164360   83.839943   82.017700
H   16.973972   23.419342   47.052826
H   56.927971   79.028038    1.826441
H   49.887932   38.070950   35.067520
H   76.796494   69.233116   80.459846
H   50.358349   69.168625   32.840729
H   62.855827   88.558807   56.707439
H   10.103800   34.401871   44.724602
H   59.552307    2.626988   70.311417
H   11.294828   67.236519   20.311434
H   55.691017   26.976208   50.190708
H   75.951248   65.274323   66.011917
H   99.368492    2.596907    1.555352
H   27.012499   75.222763   61.721596
H   30.699341   62.007000   56.211823
H    1.708512   28.874004   35.540363
