100
TIME:    0.217, STEP:   217
H    2.648001    2.121382   98.947342
H   95.233940   16.510136   91.688843
H   83.492798   89.515938   20.791931
H   81.513031   23.710100   28.268404
H   93.227402   90.151031   59.821419
H   24.651371    0.977473    0.235233
H   41.597294   75.991127    7.422255
H    2.830526    7.375858   88.269707
H   48.293724   65.429718   86.427788
H   68.910332   19.502476   16.186541
H   80.070221   74.974030   18.847271
H   47.559284   34.567619   77.482918
H   29.459366   48.578644    3.561299
H   44.337406    4.408206   73.754509
H   83.142143   50.638733   40.341587
H   92.798477   92.756660   15.026752
H    6.619878   96.347664   93.112343
H    5.781873   84.147842   92.023239
H   48.643333   87.456375   74.794205
H   86.775398    0.982145   30.992197
H   51.399460   34.614502   51.351997
H   83.155128   44.386353    0.777846
H   82.846764   92.857368   26.142071
H   98.879852   39.284336   90.958282
H   21.821959   68.964317   38.160782
H   45.662357   21.145206   68.832542
H   43.366772   33.456326    4.272363
H   14.231247   66.568008   73.948471
H   15.889791   68.779930   46.914185
H    9.314664   85.468948    0.639950
H   24.637911   41.501854   92.240440
H   79.458923   46.515060   79.175316
H   85.643127   52.605278   17.346029
H   87.270744   53.835907   62.609383
H   75.377953   42.516708   37.941971
H   91.422142    1.531982   19.897665
H    0.612546   96.588234   25.563915
H   55.019783   54.982517   37.754200
H   40.965069   75.875679   21.328011
H   42.754337   91.868217   55.107956
H   20.412426   63.624279   47.451595
H   12.118454   21.595995   12.995122
H   13.110623   64.801224   17.147545
H   65.502533   16.408396    1.949045
H   37.832382   23.330124   74.676697
H   75.180000   67.283501   84.169258
H   38.371387   37.446957   29.477484
H   56.251003   97.616669   82.004684
H   71.371025   14.477726   35.817696
H   30.440969   34.052273   68.486588
H   43.527279   48.694077   55.706181
H   15.678807   43.603104   59.817551
H   13.380575   23.266968   90.266975
H   71.660873    3.661538   41.391499
H   23.483948   77.528641    2.247508
H   93.837753   12.304050   85.239609
H   10.009388   83.285393   76.625908
H    9.901171   56.393684    7.965397
H    7.392036   47.937698   94.824066
H   44.699013   44.467636   57.436310
H   73.389145   68.477890   97.477356
H   91.209381   25.925552   85.536209
H   88.951866   92.355400   18.671112
H   57.941292   42.974907   21.248854
H   40.935150   43.512951   15.769624
H   88.014809   31.485432   59.016598
H   70.158257   55.863186   77.538864
H   65.376091   29.948151   76.576454
H   67.719109   34.194084   46.623295
H   34.782547   59.059456    1.274447
H   15.141726   80.639717   59.544834
H   56.073635   44.323753   72.510170
H   92.842560    7.573879   56.185345
H   25.414619   35.647404   90.311653
H   72.633102   28.952463   17.847969
H   30.788275   21.479845   81.327927
H   86.657257    7.735992   94.872375
H   42.175385   36.531559   26.423946
H   71.955238   52.865253   20.108082
H   88.883377   97.135612    2.226502
H   15.128386   31.526449   92.958511
H   57.605541   45.644730   68.635315
H   31.526421   10.879334   50.567993
H   65.098663   30.730564   43.609627
H   41.763954   35.310570   26.716640
H   46.300846   17.022947   56.852955
H   81.647652   87.575249   33.890575
H   59.448441   87.920586   93.482903
H   60.186470   82.090187   26.425495
H   47.149727    0.358485   31.969114
H   32.903111   85.148697   38.044384
H   94.342430   11.826838   37.659180
H   99.207634   34.133385   35.702782
H   68.202461   26.394861   41.449703
H   52.840107   30.292088   21.073372
H   11.844940   87.162407   56.240623
H   45.377678   80.133644   24.709099
H    7.662000   18.085297   52.563316
H   98.374840   37.785694   26.874874
H   52.717937   73.129646   76.785751
