100
TIME:    8.373, STEP:  8373
H   51.090080   54.177055   91.480301
H   69.234665   58.586124    6.049023
H   23.695108   76.291260   25.053661
H   82.881989   87.682182   81.210518
H   20.169813   43.890125   38.678055
H   98.173462   92.137001    7.951900
H   14.141677   26.722818   45.232670
H   61.785004   12.973378   39.412971
H   47.803551   81.262802   73.037598
H   46.063606   36.608875   35.557533
H   21.418961    3.148551   33.220047
H   36.267586   43.385708   96.930260
H    9.831289   55.178909   93.021545
H   40.499916   79.267952   94.428413
H   82.304451   22.115189   48.242523
H   64.863083   79.395714   38.009064
H   50.800209   35.779446   35.615578
H   80.115417   87.408913    9.277531
H   75.675980   29.610889    4.485191
H   66.930130   28.004198   86.405403
H   67.411034   22.658512   29.986979
H   65.108009   55.199265    6.239964
H   73.950584   26.527723   92.788208
H   41.085533   36.993622   85.222321
H   30.117092   22.139252   98.376442
H    8.127981   79.267441    2.945198
H   40.065811   94.420670   66.104477
H   26.052565   47.263035   43.539825
H   93.233345    8.756285   61.375725
H   22.050983   83.607498   49.017822
H   45.586422   72.878166   46.933968
H   94.433739   21.175571   24.133492
H   60.140835   55.873680   52.102921
H   31.881916    6.387245   19.010042
H   72.574821   25.716393   34.472538
H    0.488659   41.239677   93.102943
H   82.878410   97.896736   68.224998
H   17.921200    5.720390   13.301276
H   91.644310   98.985374   32.906044
H   74.549835   28.330847   96.804504
H   63.016235   43.479370   39.608730
H   94.582962   74.437881    7.417664
H   83.345245   13.714945    6.264591
H   44.699139   53.185249   99.403229
H   30.360378    1.538956   72.611382
H   70.043755   22.614834   17.177530
H    7.153121   80.190071    5.838721
H   56.698666   81.609177   86.651360
H    9.783287   38.997978   10.470850
H    1.533024   58.175854   98.091820
H   42.926662   61.284447   41.691635
H   12.056293   86.786728   24.401352
H   82.549767   70.558228   16.581331
H   82.791962   70.594391    1.294528
H   74.124062   92.374344   71.561752
H    4.024321    3.726140    7.590118
H   27.063957   47.947166   52.329460
H    2.585317   86.160484   97.884789
H   50.636181   92.557198   68.691788
H    6.488074   71.365570   25.462547
H   87.875565   89.188232   61.569889
H    1.743784   50.007370   16.502438
H   42.503765   35.924957   59.308716
H   17.998295   87.374313   99.809998
H   64.664001   92.106201   75.309845
H   86.982399   26.026573   41.261463
H   15.786978   37.838627   71.310471
H    1.985247   96.397575   66.480423
H   74.212250   48.155952   35.092949
H    0.076013   69.196976   84.084610
H   56.150402   25.701717   61.713722
H   83.770950   73.583397   69.782578
H   61.055969    4.149349   47.067402
H   45.884769   19.493076    5.658850
H   65.806961   40.644009   36.148045
H   23.599276   44.203934   32.533028
H   27.230099    1.095182   39.238487
H   25.356543    3.234356   76.853271
H   63.027061   28.924580   11.098938
H   88.905937   52.902672   99.579887
H   74.730583   15.904885   80.425705
H   69.598526   98.770660   86.518761
H   47.485748   47.144321   27.345219
H   26.198761   28.655222   98.673790
H   44.635101   25.139530   36.084480
H   58.589863   16.607304   23.229904
H   26.368593   94.566841   22.800255
H   90.689903   35.058151    8.763023
H   29.449242   27.976633   59.710457
H   26.052858   64.790421   23.532072
H   66.680351   25.549015   10.284568
H   97.816109   25.208824   93.067604
H   22.178791   78.749474   66.501526
H   56.483032   21.153065   91.377357
H   11.826382   99.726456    8.489586
H   85.497040   65.091309   34.972740
H   97.993340   48.187935   55.649879
H   22.115488    0.756715   10.792524
H    9.842616   72.958839   43.711369
H   59.289181   63.765835   91.142212
