100
TIME:    0.227, STEP:   227
H    1.971760    1.204339   98.938187
H   94.955772   17.052319   92.319641
H   83.664612   90.235390   20.674515
H   81.514709   23.298075   27.720270
H   93.137833   90.952576   59.550270
H   24.496304    0.966589    1.225584
H   41.073231   76.666328    8.204280
H    2.044546    8.240967   87.351585
H   48.047905   64.468262   85.798363
H   68.637047   19.646023   16.578157
H   79.140045   75.376404   17.884022
H   47.177586   35.068871   76.771095
H   28.823265   47.973633    2.567394
H   43.842258    4.377374   74.515465
H   83.263756   49.745560   39.860859
H   92.396408   91.882027   14.196674
H    5.815921   97.008980   94.022835
H    5.995563   83.661545   91.676559
H   48.799049   87.875839   75.321091
H   86.504707    0.772451   31.674417
H   50.806046   33.618942   51.080620
H   84.113991   44.399551   99.926338
H   82.713249   92.776039   25.855930
H   97.950745   39.404270   90.215637
H   21.464331   68.171318   38.234634
H   45.616734   20.847012   67.895348
H   42.504421   33.040600    4.470794
H   13.387512   67.034775   74.278976
H   16.107239   69.687218   46.441467
H    9.698098   85.221451    1.434899
H   25.031282   42.398613   91.449120
H   80.090332   46.238800   78.249565
H   86.347473   51.873619   18.246908
H   87.693260   52.919464   62.188087
H   75.129387   41.760788   38.550873
H   92.291588    2.317541   19.863256
H    1.571670   96.222023   26.351879
H   54.606499   54.799488   38.459843
H   40.515469   75.662209   20.369530
H   41.812489   90.932091   55.894775
H   19.729061   63.967373   47.687267
H   11.219711   22.044832   13.464921
H   13.196740   64.861191   17.869858
H   64.863953   16.575975    2.926795
H   36.964996   22.935570   75.532410
H   75.052284   67.471489   84.208473
H   38.476978   37.986431   29.562933
H   56.251537   97.719666   82.623428
H   71.663383   13.649555   35.418755
H   30.650702   34.204479   67.787125
H   43.526821   47.728577   55.811085
H   16.164762   42.675140   59.161041
H   13.587999   23.324951   89.686226
H   71.429398    3.498364   41.832783
H   22.687820   78.405258    2.332361
H   93.850266   12.293522   84.899185
H   10.643333   82.996849   77.576988
H    9.156523   55.449318    7.707809
H    8.180687   48.360214   94.056396
H   44.038841   45.236298   57.152420
H   74.019943   68.012802   96.697632
H   90.854462   25.832474   85.083786
H   89.630119   91.673485   17.985077
H   58.628014   43.029305   20.977324
H   41.332108   42.714230   16.700907
H   87.400490   30.988300   59.607876
H   69.355949   56.208874   78.021652
H   64.685326   30.520088   77.054512
H   68.217461   33.475548   45.996082
H   34.985107   59.562462    1.253418
H   14.824152   79.959328   59.424900
H   55.249126   43.991875   73.242287
H   92.190552    7.079266   55.928921
H   25.194511   35.014545   89.717323
H   73.115280   28.966692   18.606064
H   31.024710   22.120752   80.655014
H   87.565155    6.869264   95.049377
H   42.645203   35.877674   26.976238
H   72.434517   52.836033   20.219585
H   88.392960   96.591026    1.365004
H   15.324060   31.629942   93.556198
H   58.355892   45.710037   67.799133
H   32.159153   11.046247   51.520447
H   65.786530   31.586277   42.696236
H   41.277039   34.685036   25.747250
H   46.070438   17.390493   57.547306
H   82.315529   86.848167   34.367413
H   59.609421   87.119957   93.378990
H   60.393990   81.533394   26.343670
H   46.265633   99.947021   32.326626
H   33.312351   85.688705   38.255566
H   95.082329   12.578905   37.849686
H   99.849266   34.432991   36.476402
H   69.168953   27.001436   42.123913
H   52.667225   29.396320   21.303131
H   12.670898   86.767509   55.724113
H   44.583916   80.707527   24.133995
H    7.698707   18.170441   52.403328
H   97.898460   37.828800   26.037243
H   53.338970   72.872841   75.822617
