100
TIME:    3.548, STEP:  3548
H   77.385651   96.651733   95.897720
H    2.575536   97.111038    1.806793
H   40.741646   29.160877   81.693306
H   82.072128   86.471977   45.685619
H   63.391937   57.145351   69.503860
H   73.004646   97.364281   30.116079
H   67.018059    0.914567   67.911156
H   41.020493   95.549576   82.428520
H   66.411324   45.167709   76.753700
H   77.883598   67.327385   46.626923
H   70.228714    9.004013   97.988472
H   20.422714    1.533746   40.378105
H   17.574459   47.048523   72.486046
H   79.404930   94.139931   27.244381
H   23.658218   53.105515   80.223854
H   58.867218    1.407917   38.526711
H   38.798164   16.644001   96.376785
H   76.959679   22.161598   76.540710
H    0.530049   27.196100   50.283604
H   96.931389   30.470621   57.896965
H   53.733368    3.002050   60.941536
H    2.530563   48.794006   17.133270
H   38.373116   65.766563   30.838818
H   89.393837   79.234375   43.568554
H    2.687974    4.784386   62.742592
H   30.389120   21.891432   56.616150
H   56.131580   94.990311   70.370277
H   33.172184   22.048340   84.049858
H   88.318314   70.994339   89.456947
H   37.038620    3.026511   65.444397
H   55.692883   40.211506   28.672478
H   89.780190   54.481964   70.807930
H   20.273466    8.894035   17.428816
H   28.013313   48.569679   22.279156
H   92.576797   90.718407   40.776268
H   81.042839   63.200390    8.439801
H   20.098709   74.600082   88.033928
H   17.347412   94.018379   72.813179
H   95.309326    4.113649    0.485083
H   29.011822   80.031693   17.183126
H   92.771561   77.923294   25.935041
H   12.747154   71.095856   69.489334
H   41.801838   84.776245   57.748455
H   52.795013   72.234589   27.638899
H   48.892483   91.906067   59.722836
H   32.313564   30.589466   97.574562
H   69.453415   17.790104   59.522224
H   56.428898   31.913240   88.108086
H   68.739120   38.603897    2.941826
H    0.289611   84.741829   35.512417
H   43.273930   27.107288   90.826370
H   77.559097   34.511124   41.142811
H   82.472878   42.581238   96.806648
H   94.531578   49.319283   88.380524
H   58.296341   69.522888   30.524012
H   98.005569    8.802298   71.844513
H   21.180063   87.170494   93.431679
H   61.864738   41.823059   22.167320
H   70.099129   88.679947   39.101276
H   24.887718    0.498092   62.697029
H   83.510994   13.574403   37.765583
H   72.989159   94.917801   34.818871
H   14.933595   65.174004   90.173454
H   86.674431   61.094742   30.812275
H   73.150047   77.471626   25.979174
H   83.385994   65.891243   55.969254
H    2.905415   71.024170   38.360394
H   35.281258   20.451273   35.817516
H   33.734154   94.849686   37.708477
H    2.269360   26.596296   94.262054
H    9.366766   53.994057   19.587624
H   81.418015   33.774048   16.389275
H   75.655106   42.806973   70.779289
H   52.108364   24.854549   92.344444
H   33.235226   33.696621   70.360390
H    9.532605   34.965988   57.193127
H   89.090370   19.029221   53.797520
H   98.671814   18.725100   10.381712
H   31.652220   43.097134   57.269714
H   25.524849   15.721581   15.257723
H   80.307602   65.987350   92.044846
H    7.534272   67.398697   90.095581
H   42.280895   66.479858   67.829376
H   94.247116   15.768881   39.361618
H   79.570908   26.954861    3.813678
H   69.637024   39.378349   88.166992
H    4.117636   45.384422   92.725555
H   13.067858   21.232697   58.844734
H   29.315533   96.625725   99.172737
H   52.648251   63.303413   51.048660
H   69.221375   65.011742    8.389077
H   40.810112   62.334358    1.131435
H   12.888045   33.974808   93.376732
H   90.155220   28.444683   66.040703
H   95.246437   31.921459   97.617058
H   86.971817   55.624397   84.189995
H   80.978973   71.293083   33.141167
H   19.890142   46.446777   99.265083
H   39.694786   52.144329   47.855270
H   59.589512   87.586189   55.950363
