100
TIME:    6.443, STEP:  6443
H   81.608719   31.166197   93.247269
H   22.535282   54.001850   84.357521
H   90.515640   37.438713   47.712765
H   82.558044   67.198700   87.000122
H   37.461685   89.192291   91.009750
H   28.106007   94.227913   16.817795
H   15.293033   96.399071   94.304070
H   13.479202   46.002781   16.618473
H   95.246635   66.825195   94.522545
H   98.778145    8.895985   59.987247
H    0.942869   25.490423   19.127472
H    9.928192   46.644825   34.308754
H   32.925613   71.969460   84.812675
H   36.061546   85.216743   47.555897
H   58.862679   94.512321   41.058369
H   42.465317   48.200722   98.215332
H    5.999336    8.126012   59.920052
H   38.847744   81.322769   76.176796
H   45.617085   48.646317    2.805576
H   18.932526   68.985634   55.002007
H   81.939972   14.795910   82.368294
H   80.077026   52.637161   70.597321
H   99.718864   42.221718   48.009155
H   20.410019   13.905245   28.559889
H   99.146431   75.198303   84.122902
H   17.175493   36.188454   84.546257
H    6.491417   74.650406   27.806265
H   88.900223   57.177162   79.745010
H   51.267860   33.651012   52.607727
H   48.045933   31.375755   95.589035
H   69.629784   99.812386   99.629356
H   72.572235   74.496719    2.803284
H   24.193016   97.082283   78.233276
H   50.334190   83.260269    0.318807
H   20.607834   71.844551   17.047731
H   32.716228   90.071861   99.169533
H   97.766884   68.578735   16.148352
H   97.692589   41.043949   77.105644
H   73.112518   41.033623   19.937662
H   56.334164    9.010847   44.956570
H   94.918701   77.257011   94.139992
H   57.233047   66.869370    8.886933
H   66.735748    2.137477   66.857658
H   67.935089   20.788290   10.698493
H   97.773537   77.683243    7.454906
H   94.958000   85.807205    9.336611
H   92.070602   75.230057   87.311348
H   56.583508   61.730789   67.234253
H   53.363197   98.841530   87.460190
H   61.012074   28.799212   33.037018
H   43.059185   47.613663   21.345913
H   18.252815   65.878052   51.093391
H   42.520046   59.367432   28.668909
H   27.487183    2.076610   16.128159
H   27.794041   23.238388   55.150463
H    1.620508    5.756312   73.291870
H    4.711034    3.636281   68.770348
H   46.296295   68.425652   47.599106
H   98.423355   11.002290   16.853951
H   33.847176   23.018284   80.356346
H   66.130028   78.941666   12.049627
H   70.243263   67.971542    3.827332
H   11.475286   67.624306   91.654602
H   85.469162   76.860855   52.214413
H   88.056534   46.252834   95.577156
H    5.543659   21.972313   27.144285
H   70.634476   71.111633   78.129959
H   35.303795   86.018959   74.215256
H   78.021004   86.833450   56.140125
H   60.916161   72.207451   88.166016
H   17.437954   57.019531   84.861000
H   42.712132   37.694473   28.347740
H   86.895203   99.610718   96.547668
H   88.374062   41.641636   20.332224
H   72.812737   37.826908   89.820816
H   77.975487   20.508224   62.395966
H   51.944912   68.143578    5.009130
H   34.684185   29.427916   70.263725
H   70.476906   34.593601   89.565651
H   83.554520   58.039070   65.850975
H   36.952133   95.937454   65.072037
H   24.774870   86.254639   47.982716
H   25.408989   14.867841   43.542549
H   93.417915   63.500633   74.948082
H   38.609047   45.872444   23.175674
H    3.002325   45.716919   89.204575
H   97.468117   34.894203   30.770559
H   59.650169   89.498474   28.773933
H   89.392929   35.435768   75.495369
H   96.690536   44.194370   54.537163
H   87.696739   21.335712   69.526169
H   55.015652   80.054688   56.288315
H   98.462326   20.840855   17.251657
H   69.957436    4.062472   61.240585
H   45.197075   72.605545   64.139404
H   26.087006   41.304047   34.659760
H   51.187126   37.430099   66.646500
H   25.840845    5.259228   49.537323
H    1.783556   64.624641    5.367607
H   39.410252   13.297493   77.066261
