100
TIME:    0.917, STEP:   917
H   55.309242   37.927681   98.306473
H   75.762199   54.464520   35.844265
H   95.519775   39.876278   12.572784
H   81.630524   94.868797   89.899284
H   86.957565   46.259117   40.841011
H   13.796650    0.215622   69.559898
H    4.911252   23.257505   62.163364
H   47.811905   67.933182   23.997887
H   31.086388   98.127472   42.365410
H   49.780388   29.550770   43.599716
H   14.957916    3.140126   51.418915
H   20.840382   69.655205   27.655577
H   84.931778    6.227566   33.986763
H    9.677311    2.249946   27.024105
H   91.655022   88.114502    6.692255
H   64.653641   31.529461   56.921371
H   50.341103   42.639664   56.845757
H   20.740013   50.107010   67.755661
H   59.543449   16.821741   11.674646
H   67.827034   86.306061   78.747627
H    9.860458   64.928070   32.355568
H   50.275806   45.310272   41.174900
H   73.500755   87.164314    6.112900
H   33.842316   47.679722   38.970543
H   96.787468   13.449505   43.328377
H   42.454296    0.286783    3.223118
H   83.005142    4.357612   18.163023
H   55.166473   99.241653   97.083847
H   31.110443   32.289036   13.825443
H   36.154476   68.144119   56.287319
H   52.173923    4.275121   36.847984
H   23.656958   27.176834   14.372765
H   34.949810    1.390665   80.407555
H   16.847572   89.685219   33.118721
H   57.978355   89.601875   80.567184
H   52.284729   56.520031   17.489065
H   67.750420   70.953468   80.721382
H   26.089882   42.170475   87.151695
H    9.494688   60.932747   54.237473
H   76.821770   26.336508   10.181337
H   72.573822   87.646111   63.948635
H   49.206444   53.014603   45.882267
H   19.139494   68.998917   67.707954
H   20.802580   28.138971   70.392708
H   77.111977   95.711655   34.578262
H   66.239876   80.442680   86.914314
H   45.762745   75.208588   35.458931
H   56.288387    4.824811   25.316664
H   91.836113   56.502388    7.893741
H   45.122211   44.706722   19.529037
H   43.474659   81.112923   63.085575
H   49.696999   78.648666   13.861893
H   27.901361   27.325806   49.612617
H   55.454746   92.242088   72.281387
H   67.758484   38.893932    8.187466
H   94.713608   11.568222   61.409958
H   54.384415   63.087334   43.201836
H   57.776794   90.288094   89.935013
H   62.597572   77.513809   41.084911
H   98.507065   98.270584   37.527916
H   17.545614   35.926346   42.898735
H   66.365021   19.410049   53.864883
H   36.432327   44.621330   70.648293
H    6.007543   46.782738    2.241743
H   68.721260   87.604881   80.959984
H   45.012489   96.686378    0.406048
H   13.995901   80.064880   11.334805
H   17.022514   69.981247   10.040504
H    2.604084   83.896561    2.718813
H   48.961777   94.265282   99.802185
H   92.912651   33.008984   51.149448
H   98.356766   21.092247   23.759653
H   47.201996   72.946754   38.235668
H   10.007577   91.349930   48.708565
H    6.384904   29.948481   70.912651
H   47.338718   66.345116   34.227421
H   50.213070   47.066765    7.260084
H   75.062653   90.760368   65.084229
H    5.505507   50.816257   27.913334
H   54.554153   59.013878   41.920746
H   28.826878   38.768444   34.795025
H   10.125950   50.216263   10.098543
H   75.817268   22.562429   17.239445
H   13.250502   90.630470   79.672249
H    7.678803   91.524673   58.859581
H   30.186680   42.737919    5.462471
H   28.399084   36.679558   67.269180
H   70.717056   31.876587   86.209038
H   74.712837   43.114662   20.697727
H   85.261765   71.551483   56.995052
H   61.549961   22.947546   52.827099
H   46.135670   64.473213   50.994598
H   44.120003   55.105827   89.856224
H   35.859451   68.856819   88.647163
H   40.738361   67.591217   37.157372
H   69.662018   59.519585   20.084923
H   89.815475   20.304960   84.451401
H   10.232064   24.045380   41.364128
H   65.028282   40.803120   68.237709
H   96.190231   55.150639    9.365551
