100
TIME:    0.795, STEP:   795
H   63.559731   49.115730   98.418167
H   79.155846   47.849422   28.148527
H   93.423645   31.099014   14.005264
H   81.610046   99.895042   96.586052
H   88.050308   36.480278   44.149025
H   15.688473    0.348397   57.477795
H   11.305111   15.019146   52.622807
H   57.400864   57.378651   35.199898
H   34.085381    9.857422   50.045326
H   53.114464   27.799496   38.821991
H   26.306061   98.231262   63.170090
H   25.497105   63.539940   36.339577
H   92.692673   13.608932   46.112114
H   15.717880    2.626100   17.739513
H   90.171349   99.012146   12.556906
H   69.558884   42.200924   67.048325
H   60.149727   34.571609   45.737755
H   18.132881   56.039841   71.985153
H   57.643715   11.703349    5.247519
H   71.129463   88.863861   70.424538
H   17.100113   77.072968   35.666374
H   38.577686   45.149246   51.563404
H   75.129631   88.156532    9.603580
H   45.177429   46.216526   48.031746
H    1.150911   23.125027   42.428307
H   43.013699    3.921794   14.658103
H   93.524887    9.429149   15.742048
H   65.460167   93.547104   93.051682
H   28.457703   21.220579   19.592129
H   31.476397   71.163589   46.588528
H   47.374790   93.334526   46.502098
H   15.953773   30.547211   25.666924
H   26.356167   10.316523   69.416832
H   11.692685    0.865808   38.258522
H   61.010857   98.824104   73.137650
H   41.677490   46.936657   17.908850
H   56.049206   75.421242   71.108223
H   31.131950   44.403431   78.541924
H   14.979578   63.537086   65.930786
H   88.313255   37.757954    0.582601
H   80.911804   83.459435   61.073437
H   60.171104   47.538788   40.150486
H   18.088636   68.267319   58.895813
H   28.592794   26.094500   58.463753
H   87.695015    0.525603   24.137983
H   67.798012   78.149223   86.435890
H   44.474537   68.627930   34.416451
H   56.281872    3.568696   17.767988
H   88.269341   66.606308   12.760589
H   42.563480   42.849804   28.061554
H   43.483967   92.891090   61.799229
H   43.767891   89.968887   21.871307
H   25.370554   26.618408   56.698692
H   58.279682   94.232109   66.897720
H   77.470306   28.198435    7.152199
H   94.560959   11.696438   65.563126
H   46.650513   66.607567   31.598656
H   66.861267    1.809355   93.077347
H   52.976036   72.359116   50.451412
H    6.557723   88.893845   40.997887
H    9.849594   41.599487   52.410439
H   70.695038   20.545609   59.385376
H   28.156925   52.940697   79.017921
H   97.630074   46.119087    5.554411
H   63.879288   97.348351   69.598808
H   52.507179    2.751341   93.192467
H   23.784513   75.846558    5.444375
H   25.449852   63.004074    4.208198
H   96.523857   92.662704   10.370583
H   46.490540   88.129539    0.059001
H   96.786583   41.310665   52.612644
H    8.416117   25.141167   14.827364
H   55.156494   78.981972   41.364040
H   12.692662   99.069870   55.959389
H    0.502925   29.774889   61.664356
H   44.454212   58.525864   42.436024
H   39.135784   57.640495    5.101358
H   69.330872   98.737206   58.346416
H   99.657539   51.173679   26.552990
H   60.537247   65.658531   52.431183
H   26.439411   37.506298   27.503532
H    0.972118   49.419510   20.300560
H   68.097328   20.526335    5.619718
H    4.857792   80.190773   90.815620
H   13.619320   99.155258   70.686150
H   32.994862   38.256184   96.990334
H   20.250982   45.549950   61.451763
H   68.753098   41.644249   87.476768
H   72.181099   49.907539   21.695995
H   96.047714   76.572144   52.633389
H   56.557224   16.359907   50.250683
H   37.108906   55.297523   48.670425
H   36.292091   51.450630   80.418053
H   24.067324   61.456749   80.420876
H   42.847523   78.518646   34.353844
H   59.585327   64.337334   26.386345
H   99.499374   13.303676   91.467667
H    9.784123   23.006622   43.315987
H   70.840111   40.277225   78.457741
H   88.613632   58.284595   21.116129
