100
TIME:    6.066, STEP:  6066
H    7.103853   65.739067   93.592422
H   32.946114   33.571621   60.587513
H   84.032501   10.316524   52.139362
H   82.494766   82.730621    7.664100
H   40.838440   58.974075    1.231955
H   33.953487   94.636345   79.482994
H   35.051403   70.943977   64.822182
H   43.110657   13.388564   51.234524
H    4.514076    3.072151   18.253458
H    9.076487    3.482403   45.226170
H   36.010483   10.321182   55.441040
H   24.318230   27.747654   61.144463
H   56.982834   94.766869   22.273369
H   54.728615   86.378761   18.864986
H   54.282875   28.187679   59.186825
H   57.623322   81.174416   29.510353
H   36.315559   83.189369   25.600256
H   30.785528   99.667694   89.246620
H   39.746593   32.829643   82.942352
H   29.088676   76.993202   29.334070
H    4.311668   52.328510   92.602104
H   43.933670   52.136688    2.702353
H    4.752814   45.287834   58.795212
H   55.439777    9.395235   56.560314
H   12.629725    5.094872   81.338661
H   18.894072   47.334045   19.998413
H   39.000900   90.320389   20.325056
H   20.710598   39.580070   67.284958
H   43.070457   99.447296   70.429169
H   33.589741   40.706413   65.618179
H   54.792137   66.004570   29.456322
H   48.768131   84.914612   37.704033
H   97.637444   24.664637   44.270142
H   34.405342   17.809898   16.200338
H   29.987652    0.376028   94.105591
H   99.945007   60.543953    0.354736
H   61.606461   82.384888   86.442482
H   13.274479   47.944149   50.501499
H   89.024109   49.248283   56.471718
H   91.844116   44.304905   15.294287
H   20.683388   64.319496   85.258034
H   89.004456   65.390961   89.639641
H   63.490849   99.875946   39.627594
H   92.009567   14.460470   73.836632
H   30.475513   92.559372   75.194199
H   99.824669   78.616501    7.804991
H   89.125290   54.727921   83.692986
H   56.563374   57.847809   43.907612
H   42.344162   30.063736    2.497725
H   53.100140   23.059752   59.398865
H   43.085072   84.010132   17.372330
H   99.929482    0.859575   75.840919
H   34.699436   57.181458   50.565823
H   36.216698    8.228257   99.493126
H   57.811119   90.200058   51.943409
H    1.150955    6.152880   86.125839
H   80.809563   14.515092   32.914619
H   74.368805    4.028397   57.309433
H   68.688354   95.071953   45.795097
H   58.724136   94.040421   91.079124
H   42.348927   96.475479   41.442448
H   83.623726   71.480606   20.886131
H   85.881401   93.349770   17.506622
H   59.582138   74.807190   62.451099
H   73.094116   76.363449   60.469257
H   28.702042   40.714165    4.852743
H    0.881490   58.077633   59.928848
H   61.345650   64.458351   56.192478
H   59.232403   13.922249   79.784119
H   53.279633   53.245369   88.959869
H   29.410477   82.670212   89.382515
H   73.797012   50.206299    0.745480
H   11.476490   18.257706    6.213753
H   96.675011   65.500572   42.731956
H   54.636120   37.289043   61.242081
H   69.064766   96.346123   87.764587
H   17.708080    0.785048   98.328194
H   16.972042   54.080376   49.443184
H   52.398441   35.700970   85.360527
H    2.043148   78.575722   98.329948
H   29.574472   92.037216   42.539249
H   96.482895   83.809662   79.519951
H    1.561833    8.563750    7.638092
H   67.479607   31.240223    9.382266
H   56.965477   69.454414   59.721710
H   11.679859   31.867638   63.024658
H   72.289146   62.305168   12.793798
H   53.586967   19.665854   32.682800
H   81.569443   56.426872   78.578743
H   30.022512   59.706158   41.061783
H   72.268364    0.978927   61.564617
H   27.121469   51.700302   49.106239
H   74.295807    9.528440   88.097672
H   33.523106   81.190376   35.820007
H   51.714729    6.373580   55.476048
H   94.948288   56.191681   54.132187
H   81.111961   15.795779   88.327911
H   26.568544   86.604141   57.104820
H   19.742615   62.998440   36.946304
H   15.994440   22.971867   13.383052
