100
TIME:    6.554, STEP:  6554
H   74.102127   20.987329   93.145645
H   19.470062   60.017117   91.355995
H   92.424469   45.424629   46.409443
H   82.576675   62.625641   80.916260
H   36.467468   98.089432   88.000000
H   26.384335   94.107658   27.810497
H    9.475720    3.894185    2.984436
H    4.754822   55.605358    6.426679
H   92.518044   56.153030   87.535927
H   95.746376   10.489992   64.333351
H   90.617920   29.956778    8.435406
H    5.691338   52.208714   26.407825
H   25.842453   65.257225   73.783134
H   30.565517   84.874611   56.003353
H   60.210884   84.597252   35.720592
H   38.002350   38.492287   89.001465
H   97.073311   15.467677   70.024818
H   41.221500   75.921478   72.328651
H   47.345531   53.303215    8.653247
H   15.942253   66.627968   62.559410
H   75.353073    3.745237   79.355156
H   90.718704   52.784515   61.144638
H   98.236855   41.318962   44.833420
H   10.096500   15.233126   20.316103
H   95.176338   66.396011   84.942665
H   16.669493   32.906860   74.107826
H   96.919868   70.036697   30.008955
H   79.533920   62.358269   83.413620
H   53.681419   43.721905   47.360565
H   52.302265   28.628532    4.413169
H   73.997902    9.765857   90.847389
H   79.580872   71.429382   92.527473
H   32.011677   88.960869   88.233032
H   55.024117   73.087753   95.642456
H   17.845367   63.440285   23.801462
H   42.365383   98.765755   98.820625
H    8.413232   64.513794   24.894751
H   93.104286   39.012325   84.939125
H   68.427673   38.614983    9.181234
H   45.879642   98.619293   53.690266
H   87.332504   81.066200   96.755104
H   47.878601   67.304657   14.553716
H   67.691010    2.803375   74.875755
H   60.847225   22.651388   21.551359
H   88.144707   73.303268   16.953741
H   93.525108   87.924362    9.787565
H   92.937790   81.266495   88.376701
H   56.589436   62.874054   74.102310
H   56.607529   89.647987   83.032791
H   63.341793   30.489126   25.275888
H   43.051563   36.897461   22.515854
H   23.648602   55.577812   43.806984
H   44.822666   60.011047   22.222166
H   24.916954    0.265376   21.025990
H   18.955757   32.965919   56.094715
H    1.758758    5.639551   69.513168
H   11.747828    0.433288   79.327339
H   38.030914   57.943184   44.740097
H    7.177697   15.692851    8.332626
H   26.522659   31.550426   77.199242
H   73.131889   73.779190    3.395325
H   66.303658   66.938370   98.804901
H   19.011095   60.049965   84.042999
H   93.090927   77.465515   49.200428
H   92.461914   37.387028    5.914203
H   98.725037   16.454155   33.707474
H   61.728867   74.949615   83.488907
H   27.636299   92.367043   79.521698
H   83.552711   78.857697   49.178066
H   63.164581   77.789970   87.932281
H   13.913013   49.467209   83.529732
H   33.560085   34.010620   36.474892
H   79.657913   94.119659   93.702209
H   85.930016   34.616909   13.737280
H   78.164909   37.985271   98.235245
H   80.599068   27.622295   54.927483
H   62.025967   58.536282    6.977768
H   39.899166   22.169878   76.393318
H   75.800285   34.267559   90.803764
H   78.110886   51.992470   56.288200
H   39.124336   97.085800   71.706360
H   33.104134   86.974472   38.696865
H   32.430328   16.724035   54.113937
H    1.054863   72.999046   64.809441
H   33.204369   38.929016   12.415506
H    0.447445   49.794563   96.912720
H    4.881595   26.823601   36.063454
H   61.435356   80.616577   27.623047
H   91.696396   29.255552   74.587532
H   86.877090   39.627239   58.504715
H   92.239311   27.329384   71.870285
H   63.228527   88.403061   58.402931
H    5.577579   24.171566   25.835459
H   80.685493   10.796514   68.725159
H   43.278084   62.663261   66.690155
H   35.255142   36.920685   28.926498
H   42.376366   43.800201   60.262848
H   25.626589   10.751504   47.309227
H   96.495781   65.103966   96.070274
H   46.304562   10.449070   66.373772
