100
TIME:    9.691, STEP:  9691
H   61.959137   33.310524   90.273636
H   32.833603   30.005138   89.153496
H   46.350246   71.113350    9.582167
H   83.103210   33.382256    8.965203
H    8.359579   49.533371    2.943829
H   77.740601   90.709114   38.477974
H   45.064259   15.720317   48.301998
H   58.192810   26.996700   18.397842
H   15.404594   54.541840   90.073463
H   10.061701   55.533405   87.162575
H   98.821747   56.179459    6.261081
H   85.962517    9.450228    3.113536
H   25.786865   75.404701   62.041962
H   75.241302   75.205513   94.728783
H   98.312874    4.384926   84.859886
H   11.868465   64.118637   28.603420
H   44.814491   22.955467   55.598312
H    8.303428   23.274666   63.586594
H   96.209396   84.902512   73.924011
H   31.423183    0.014614   76.140953
H   89.198547   91.448128   94.212479
H   91.465958   56.948929   94.000137
H   56.353386   15.813499   55.079926
H   18.623882   52.760712   87.336426
H   82.979111   17.615349    8.106213
H    1.910931   40.412827   78.916039
H   26.412853   39.633602   92.248886
H   14.843512    8.782826   87.105156
H   21.892773   28.335089   99.074020
H   72.589149   50.987320   53.795113
H   97.456474   91.066650   42.658020
H   77.653030   84.759415    2.119682
H   52.979317   59.442612   70.838768
H   87.569519   85.600426   63.484917
H   39.773643   25.925270   14.660602
H   15.059462   44.474888   88.960060
H    9.292340   49.630135   72.078262
H   63.442738   81.605309    6.308967
H   36.011990   70.266747    5.182850
H   50.409122    4.943280    0.501930
H   72.940369   88.704636   70.660240
H   83.508949   79.608200   74.698723
H   94.687897   21.622902    1.464508
H   60.548695   75.312355   28.267902
H   16.025274   49.535099   85.394150
H   53.036263   47.751812   22.532106
H   17.457996   51.871037   18.495424
H   56.779110   95.184158   68.201340
H   48.306068   29.841686   57.897850
H   29.197134   78.243797    5.937673
H   45.242893   34.221214   51.890045
H   76.111511   64.487213   37.882423
H    9.883385   78.200439   40.034416
H   52.267204   49.088669   59.453133
H   69.182991    7.877325   82.763626
H    5.665888    2.339732   62.722275
H   10.620077    9.916704   77.682152
H    4.444415   61.691765   63.937279
H   54.588894   48.250786   67.508156
H   19.513348   72.671371   87.975502
H   71.020111   27.895235   58.815815
H   54.965385   37.739609   56.869835
H   31.991215   46.000458   68.935837
H    8.503096   94.553970   64.032379
H   16.974598   86.838753   98.048851
H    6.016509   60.505272   19.192408
H   10.041176   83.404572   34.944347
H   10.942182   71.775948   29.488449
H   39.900665   53.452881   52.431179
H   26.844147   35.397892   81.289169
H   14.291206   36.021450   45.906410
H   75.236229   29.821678   66.390900
H   75.120956   38.953472   13.270725
H   16.874531   36.076954   27.346865
H   29.295343   42.584728   36.079639
H   54.761398   28.674580   43.847672
H   46.932564   87.019455   62.617622
H   87.272835   17.058357   49.648674
H   26.232389   25.053196   25.809359
H   24.269516   81.104286   86.032997
H    0.533056   29.540201   59.201302
H   68.499657    7.325402   76.254143
H   30.850153   69.186073   52.865582
H   16.874828   41.439407   78.293938
H   80.460632   42.689293    8.320498
H   28.252293   65.022926   14.755830
H   14.394899   98.737190   85.647392
H   11.885960   29.593977   95.101089
H   56.800785   54.592690   48.930916
H    9.523913   10.561028   70.644608
H   20.618979   96.716705   38.118309
H   95.334763   24.335104   18.179377
H    6.665346   18.292463   68.424492
H   81.453896    0.931489   83.945183
H   89.038330   81.669014   38.773598
H   94.358429   13.045513   66.896133
H   93.376640   23.824669   79.849609
H   19.571436   65.969498   84.328392
H   47.056053   78.650276   33.314869
H   41.156265   29.948742   64.176163
