100
TIME:    6.518, STEP:  6518
H   76.536697   24.288584   93.178604
H   20.464188   58.066219   89.086220
H   91.805389   42.834602   46.832142
H   82.570633   64.108795   82.889404
H   36.789917   95.203873   88.976135
H   26.942715   94.146660   24.245296
H   11.362416    1.463220    0.169168
H    7.584351   52.491009    9.732121
H   93.402992   59.614273   89.801857
H   96.729652    9.973017   62.923801
H   93.966553   28.508230   11.903103
H    7.065453   50.404209   28.970249
H   28.139694   67.434166   77.360283
H   32.347939   84.985573   53.263638
H   59.773628   87.812950   37.451763
H   39.449799   41.640968   91.989746
H   99.968208   13.086596   66.747597
H   40.451633   77.673248   73.576698
H   46.784954   51.792870    6.756709
H   16.912071   67.392616   60.108360
H   77.489365    7.329219   80.332390
H   87.267349   52.736725   64.210373
H   98.717506   41.611748   45.863388
H   13.441425   14.802462   22.989763
H   96.463936   69.250809   84.676796
H   16.833601   33.971161   77.493263
H    0.024058   71.533035   29.294569
H   82.571640   60.677910   82.223801
H   52.898643   40.455669   49.062347
H   50.921833   29.519524    1.551347
H   72.581215    6.537714   93.695595
H   77.307800   72.424194   95.860176
H   29.475895   91.594841   84.989868
H   53.503059   76.386948   97.159119
H   18.741302   66.165993   21.611063
H   39.235928   95.946114   98.933784
H    4.960397   65.832153   22.058081
H   94.592384   39.671230   82.398537
H   69.947083   39.399406   12.669806
H   49.270298    1.989468   50.857716
H   89.792892   79.830788   95.906960
H   50.912476   67.163483   12.715840
H   67.381195    2.587408   72.275291
H   63.145840   22.047140   18.031477
H   91.267570   74.723801   13.873038
H   93.989830   87.237717    9.641310
H   92.656540   79.308731   88.031181
H   56.587513   62.503265   71.874832
H   55.555313   92.629677   84.468704
H   62.586208   29.941046   27.792994
H   43.054035   40.372986   22.136414
H   21.898617   58.918480   46.170143
H   44.075871   59.802307   24.313002
H   25.750542    0.852806   19.437504
H   21.822227   29.811016   55.788471
H    1.713920    5.677420   70.738693
H    9.465625    1.472096   75.903450
H   40.711578   61.342903   45.667343
H    4.338487   14.171588   11.096306
H   28.898178   28.783245   78.223167
H   70.861015   75.453506    6.202126
H   67.581367   67.273453    0.433686
H   16.567049   62.506508   86.511627
H   90.619003   77.269409   50.177937
H   91.033142   40.262424    2.561588
H    0.936530   18.243828   31.578871
H   64.617172   73.704865   81.750870
H   30.123055   90.308205   77.800690
H   81.758644   81.444427   51.436031
H   62.435364   75.979424   88.008087
H   15.056210   51.916611   83.961494
H   36.528316   35.205383   33.838997
H   82.005142   95.900543   94.625061
H   86.722679   36.895199   15.876181
H   76.429070   37.933910   95.506241
H   79.748177   25.315029   57.349693
H   58.756435   61.652279    6.339291
H   38.207821   24.523836   74.405342
H   74.073784   34.373302   90.402214
H   79.876389   53.953529   59.389641
H   38.419838   96.713364   69.554688
H   30.402788   86.741013   41.708492
H   30.153137   16.121984   50.685379
H   98.578056   69.918480   68.097649
H   34.957237   41.180939   15.905245
H    1.276055   48.472084   94.412781
H    2.477214   29.441093   34.346840
H   60.856377   83.497192   27.996307
H   90.949326   31.259871   74.881966
H   90.059830   41.108471   57.217941
H   90.766045   25.385490   71.110031
H   60.564892   85.695480   57.717110
H    3.269935   23.091335   23.051523
H   77.206123    8.612500   66.297729
H   43.900459   65.887863   65.862885
H   32.281693   38.342316   30.785934
H   45.233910   41.734222   62.333221
H   25.696077    8.970208   48.031853
H   98.210747   64.948509   99.085472
H   44.068569   11.372883   69.841606
