100
TIME:    4.101, STEP:  4101
H   39.987946   45.938690   95.391434
H   87.216286   27.090647   36.686821
H   50.247177   68.946419   75.204399
H   82.164948   63.689079   15.372844
H   58.438766    1.470738   54.509338
H   64.431526   96.765175   84.881950
H   38.036930   38.257099   11.156549
H   97.555779   43.390125   31.653721
H   52.817528   91.998871   41.943821
H   62.770943   75.267647   68.282501
H   18.789993   31.254978   44.720211
H   99.314949   29.252390    1.015904
H   82.373886   13.594440   17.526199
H   52.023262   92.435432   69.328918
H   30.385502    3.709809   53.642162
H   36.632797   53.040642   92.622009
H   94.329018   53.218990   46.718559
H   88.773033   95.268867   57.367863
H    9.142811   50.396683   79.418411
H   82.029686   18.726881   95.547813
H   20.917557   47.950367   45.934357
H   55.547211   49.528122   70.040253
H   30.989769   61.269051   15.015317
H   38.014183   85.866730    2.496338
H   82.909210   60.930763   66.826637
H   27.851648    5.417672    4.779581
H    8.444643   72.004898   81.339821
H   86.511353   47.860519    2.327206
H    0.342643   21.166771   63.315681
H   58.243591   89.339684    9.406578
H   77.456383   89.800255   84.920876
H   24.696699   39.204765   19.613914
H   59.227367   68.433662   67.247421
H   51.378799   97.890656   98.983406
H   78.831116   48.916008   74.449860
H   29.130133    6.637060    6.535652
H   73.137650   54.348618   31.607962
H   94.491051   83.901085   11.838377
H   71.969513   92.064751   46.894661
H   76.924568   28.261124   60.693523
H   54.977264   96.900604   38.963482
H   63.046616   95.912338   95.470276
H   46.565151   88.092422   97.693810
H   17.482389   81.499634   81.708496
H    0.924680   70.085114    7.044075
H   25.179142   41.137104   99.819099
H   73.773727   47.864525   64.833351
H   56.458431   37.608932   22.324532
H   84.906540   92.805328   80.884216
H   11.887790   93.154625   96.835915
H   43.231739   73.718315   96.657104
H    4.434134   83.197372    4.837887
H   93.940269   45.787720   64.691200
H   81.722527   40.294724   12.782447
H   14.266323   17.989847   35.227596
H   98.697495    8.220068   53.019089
H   56.236195   71.214027   46.026726
H   20.686760   89.598549    7.922279
H   13.714407   12.045788   96.646843
H   88.395309   43.005070   46.968391
H   18.394777   87.856712   94.650154
H   53.362114   89.770554    9.795917
H   52.478008   27.438519   52.252586
H   24.647383   64.103073   15.796658
H   95.097572   33.303623   77.477211
H   49.414162   38.399879   88.666931
H   58.537704   90.144928   65.058578
H   97.081490   52.078079   62.254116
H   61.297241   55.114624    3.024012
H   13.473021   54.412117   93.097595
H   91.806496   16.367645   12.953159
H   35.821075   15.421124   56.878735
H   39.599060   15.454838   56.601059
H   39.932171   89.860085   59.486443
H   59.895435   34.485584   12.281444
H   22.606936   70.409508   19.984596
H   39.299149   71.099899   63.577290
H   24.652767   82.566612   40.923256
H   58.168983   41.472797   63.442192
H   98.404297   85.604836   67.616417
H   91.125259   71.708389   25.095804
H   49.028465   71.010208   43.854736
H   77.267921   75.711151   20.499981
H   32.292747   63.090523   88.854111
H   52.644897   92.364220   50.206421
H   56.910000   59.693100   26.569244
H   41.051247    5.176826   19.095167
H   21.967955   76.958336   53.094162
H   40.791855   65.835060   94.649910
H    3.754576   40.550049   70.816391
H   91.852386   94.874214   20.067423
H   81.728897    3.917856   11.669298
H   48.335503   50.568352   36.141155
H   43.605396   61.990166    3.328479
H   85.686058   82.387108   10.323991
H   32.647400   33.786568   55.626991
H   37.083923    3.028717    1.336380
H   21.919508   51.155243   90.413506
H   13.351006   54.528095    1.534265
H   93.940514   73.393288    2.677251
