100
TIME:    0.534, STEP:   534
H   81.210365   73.050819   98.657120
H   86.416023   33.697453   11.684821
H   88.939301   12.322217   17.069832
H   81.566238   10.648893   10.892383
H   90.388062   15.559976   51.226006
H   19.735733    0.632457   31.629107
H   24.983982   97.395012   32.212269
H   77.914948   34.799618   59.164856
H   40.501259   34.951553   66.475014
H   60.247200   24.052917   28.600794
H   50.583649   87.729294   88.311821
H   35.459438   50.457283   54.918144
H    9.295173   29.399796   72.053032
H   28.641224    3.430822   97.876808
H   86.997261   22.324728   25.103052
H   80.052887   65.030769   88.713364
H   81.133751   17.311264   21.974337
H   12.555636   68.732208   81.033493
H   53.579529    0.753503   91.496490
H   78.194496   94.335876   52.618584
H   32.588226    3.055303   42.749329
H   13.551332   44.804756   73.787117
H   78.614357   90.279228   17.071419
H   69.427139   43.086246   67.416428
H   10.485155   43.824299   40.501907
H   44.210453   11.698339   39.121559
H   16.030970   20.278896   10.562750
H   87.483635   81.364502   84.425491
H   22.782578   97.540947   31.929054
H   21.469259   77.623276   25.839767
H   37.107792   69.929115   67.155571
H   99.474579   37.757607   49.829018
H    7.971531   29.411825   45.903893
H    0.664525   24.784668   49.254326
H   67.498421   18.554031   57.244164
H   18.984383   26.434252   18.806913
H   31.016888   84.979347   50.542370
H   41.918671   49.180492   60.123074
H   26.713192   69.108665   90.945145
H   12.896957   62.192852   80.048576
H   98.749619   74.502693   54.922398
H   83.628288   35.824135   27.888235
H   15.840526   66.702179   40.044441
H   45.259537   21.720671   32.943611
H   10.335297   10.823009    1.802880
H   71.131401   73.242729   85.412376
H   41.718616   54.548298   32.186226
H   56.267933    0.881374    1.618853
H   80.638786   88.223557   23.172110
H   37.089474   38.877216   46.315544
H   43.503880   18.089346   59.047291
H   31.083559   14.187401   39.006203
H   19.956285   25.105042   71.857216
H   64.323090   98.489449   55.380207
H   98.247238    5.317695    4.937407
H   94.234390   11.970736   74.448181
H   30.105034   74.138557    6.775274
H   86.296082   26.457268   99.799881
H   32.392258   61.331451   70.488937
H   23.780487   68.833771   48.421349
H   93.385452   53.736290   72.760101
H   79.958435   22.974960   71.194397
H   10.453365   70.738686   96.923439
H   79.708626   44.699310   12.641348
H   53.518700   18.194145   45.291809
H   68.540901   15.726368   77.760109
H   44.725121   66.822113   92.843246
H   43.478828   48.077499   91.730888
H   83.516869   11.416481   26.740658
H   41.203712   75.003075    0.607843
H    5.074732   59.070820   55.742924
H   29.936613   33.803200   95.718269
H   72.173904   91.893379   48.056705
H   18.437195   15.586773   71.471397
H   87.918137   29.403517   41.879078
H   38.283260   41.797188   59.997051
H   15.438350   80.261345    0.483175
H   57.068619   15.803417   43.931599
H   87.148369   51.938328   23.642746
H   73.337143   79.872231   74.916626
H   21.331799   34.806133   11.904772
H   81.389900   47.714981   42.126358
H   51.583218   16.170427   80.760773
H   86.904022   57.856663   14.655128
H   26.328520   15.481156   95.987251
H   39.002529   28.668556   78.865776
H    2.819379   64.526772   49.006313
H   64.551514   62.540657   90.188881
H   66.764839   64.439842   23.831635
H   19.123383   87.313065   43.302288
H   45.876041    2.266781   44.738842
H   17.797548   35.667564   43.698219
H   19.546234   43.630905   60.226555
H   98.840248   45.624146   62.822147
H   47.359745    1.896332   28.356739
H   38.027817   74.644157   39.867256
H   20.215982   98.325737    6.478018
H    8.825824   20.784363   47.491684
H   83.273613   39.152157    0.321878
H   72.404678   64.988914   46.254379
