100
TIME:    0.643, STEP:   643
H   73.839027   63.054939   98.557327
H   83.383995   39.607662   18.560392
H   90.812073   20.163925   15.789993
H   81.584534    6.157816    4.917570
H   89.411758   24.296806   48.270485
H   18.045498    0.513823   42.424145
H   19.271278    4.755169   40.736210
H   69.347763   44.229176   49.156502
H   37.821831   24.471680   59.613747
H   57.268394   25.617580   32.869415
H   40.444733   92.115173   77.811989
H   31.298923   55.920921   47.159279
H    2.361797   22.805176   61.219109
H   23.244114    3.094750    6.171826
H   88.322838   12.588798   19.863531
H   75.670334   55.496517   79.665512
H   72.370308   24.519608   31.898283
H   14.884751   63.431564   77.254684
H   55.276833    5.326396   97.239548
H   75.243965   92.050629   60.054787
H   26.120010   92.204315   39.791313
H   24.002979   44.948624   64.506416
H   77.159050   89.392738   13.952625
H   59.299866   44.393528   59.321114
H    6.587032   35.179775   41.306900
H   43.710659    8.450717   28.905176
H    6.631765   15.747890   12.725752
H   78.286095   86.452255   88.028000
H   25.152649    7.430208   26.776852
H   25.648485   74.925552   34.504787
H   41.395542   79.703789   58.530174
H    6.356627   34.746368   39.738335
H   15.649523   21.437159   55.723473
H    5.270154   14.795466   44.662209
H   64.789055   10.314355   63.881195
H   28.461758   34.996716   18.431860
H   41.471020   80.987648   59.131176
H   37.413872   47.185474   67.814995
H   21.812965   66.781837   80.498535
H    2.630397   51.988239   88.624077
H   91.300110   78.243248   57.491222
H   73.831993   40.716461   33.009251
H   16.779371   67.355820   47.917236
H   38.299011   23.547289   43.601448
H    0.880392    6.522576   11.130568
H   69.739296   75.291801   85.839821
H   42.869556   60.428570   33.117622
H   56.273754    2.003651    8.363082
H   83.825493   79.195663   18.824068
H   39.375553   40.536266   38.692230
H   43.495564    7.565813   60.196568
H   36.380806    4.072977   31.850250
H   22.217417   25.737061   65.527046
H   61.799274   96.711479   60.190205
H   89.570282   14.873270    5.862358
H   94.370773   11.856182   70.737564
H   37.014832   70.993431   17.142235
H   78.179626   16.163673   96.992386
H   40.988548   65.936874   62.121151
H   16.587944   77.211349   45.321129
H    0.261163   48.667664   64.261108
H   76.089813   21.960403   66.262985
H   17.846897   63.305809   89.445656
H   87.193062   45.292244    9.681669
H   57.845535    9.488342   55.443199
H   61.844826   10.307636   84.205040
H   35.979973   70.590942   98.105637
H   35.949486   54.311203   96.941719
H   88.948906    3.584437   19.904041
H   43.411621   80.485008    0.378632
H    1.613282   51.653744   54.435642
H   20.949053   30.185722    3.698556
H   65.067017   86.501259   45.261684
H   16.038017    8.688826   64.993202
H   93.173874   29.558611   50.141895
H   40.860401   48.783493   52.663136
H   25.334854   70.814323    2.411841
H   62.189636    8.676155   49.951580
H   92.372505   51.618992   24.858135
H   67.991592   73.936241   65.526154
H   23.464863   35.933788   18.419273
H   89.567894   48.426834   33.011147
H   58.479710   17.989561   91.142517
H   94.401764   67.183937    4.699165
H   21.020807    8.663043   85.420891
H   36.493580   32.672382   86.435036
H   10.099249   56.601585   54.203838
H   66.306198   53.813805   89.056236
H   69.026802   58.370796   22.939739
H    9.486340   82.827393   47.199184
H   50.336765    8.152357   47.040722
H   25.862444   43.865517   45.774734
H   26.539608   46.896614   68.659019
H    9.375622   52.236229   70.171730
H   45.475330   92.133148   30.861115
H   47.030762   70.339775   34.237297
H   11.564283    4.580943    0.209252
H    9.226033   21.712433   45.747810
H   78.081078   39.622013   91.190895
H   79.173935   62.189198   35.756210
