100
TIME:    3.225, STEP:  3225
H   99.229156   26.272301   96.193436
H   11.560783   79.599762   81.432053
H   35.189590    5.923811   85.483391
H   82.017914   99.779167   63.391575
H   66.285019   31.255474   78.261963
H   78.012093   97.714211   98.128075
H   83.947762   79.105476   42.652138
H   66.407654   67.604477   12.084597
H   74.351280   76.222748   97.084129
H   86.710701   62.689583   33.977699
H    0.273392   96.007599   29.101480
H   32.751579   85.343384   63.369972
H   38.120148   66.590378    4.590633
H   95.398201   95.135506    2.663053
H   19.728901   81.957474   95.748909
H   71.854050   29.658905   65.338234
H   64.771828   95.280045   66.972824
H   70.059654   37.869011   87.738464
H   95.498116   13.644946   33.267651
H    5.633675   37.329029   35.905602
H   72.900650   35.158585   69.708633
H   71.564240   48.365219   44.639725
H   42.685631   68.393501   40.080078
H   19.404099   75.360504   67.558098
H   14.239953   30.400726   60.357155
H   31.871393   31.515734   86.891869
H   83.983734    8.416799   63.963100
H   60.424816    6.971786   73.374535
H   81.295074   41.688950    4.725396
H   24.653809   11.021298   39.766449
H   42.979588   11.247870   54.227211
H   69.385689   63.405174    0.709676
H   97.521576   32.525414   88.330421
H   14.364892   78.170784   35.886108
H    0.605532   15.135018   21.108734
H   52.955593   37.825550    9.554074
H   89.118477   86.428696   62.582699
H   30.696495   99.927757   50.019970
H    8.943152   11.150442   31.785379
H   59.433659   10.269210   91.770485
H   14.845987   66.838898   18.325300
H   41.776543   56.599617   54.314209
H   39.019650   82.839310   34.418980
H   73.421158   66.822998   96.057579
H   76.910179    4.650684   32.083309
H   36.480686   24.428730   96.263557
H   66.929977    0.223493   56.419678
H   56.411648   28.587675   68.122658
H   59.297173   65.353935   15.826993
H   93.517632   79.828026   58.102604
H   43.298573   58.290665   87.420715
H   61.861546   64.484299   62.348064
H   75.774925   40.708374   15.565907
H    2.012516   54.590408   74.127045
H   84.013718   41.215057   27.777555
H   97.601425    9.142370   82.840195
H    0.703785   96.490456   62.711784
H   85.916252   72.326096   30.488010
H   44.625130   75.032684   63.899471
H   46.201401   75.672745   71.883919
H   63.136208   28.595112   62.948208
H   84.453056   97.924240   49.434601
H   93.005440   87.214653   12.322556
H   64.495781   59.337700   39.582699
H   60.330082    3.268059   95.898933
H    3.228425   81.948586   36.870972
H   28.821114   59.856899   22.765608
H   57.592979    1.977775   20.376249
H   17.634918   18.058388   57.967442
H   95.724670   10.350222   94.942200
H   19.623993   75.970634   23.462727
H    8.051620   44.493729   92.741028
H   96.714966   58.782993   79.059319
H   59.219921   45.295441   11.537209
H   17.662214   33.235798   45.875156
H    1.896169   14.264505   78.927429
H   59.764912   47.025497   48.085285
H   83.496689   39.845791   92.543976
H   16.164129   44.045887   53.664452
H   41.365334   33.313038   43.084518
H   73.989151   62.645763   72.739563
H   83.299805   65.289261   17.105009
H   21.844503   61.087982   37.065128
H   72.024109   88.128998   68.862091
H   95.298035   47.159611   35.124763
H   77.069336   27.513237   65.736984
H   82.545174   68.869148   77.323715
H    7.869429   47.093002   62.203568
H   22.611420   14.609612    1.815050
H   81.205475   76.591019   39.503441
H   56.002899   47.571789    1.567855
H   16.909697   38.043808   94.975777
H   92.183456   24.282736   68.398643
H   58.937138    8.852310   44.263504
H    0.830679   60.854740   90.194603
H   60.293365   68.379585    0.873297
H    6.617312   52.756664   51.717018
H   18.704817   43.696625    4.433611
H   55.081841   50.752003   74.909767
H   39.527691   95.876076   87.065186
