100
TIME:    8.713, STEP:  8713
H   28.097137   22.997622   91.169022
H   59.844406   77.009430   27.487118
H   29.539377    0.752590   21.062801
H   82.939056   73.674614   62.575066
H   17.123167   71.142624   29.459358
H   92.902466   91.768654   41.623611
H   96.322334   49.682259   71.821114
H   35.061676   42.386745    8.194415
H   39.445702   48.573288   51.635647
H   36.777107   41.490772   48.869911
H   89.792999   16.828693    0.469564
H   23.289833   60.428249   72.728294
H   88.150482   34.600754   59.232544
H   23.665537   78.219978   20.302921
H   86.434090   91.744728   31.892578
H   51.192734   49.658165    9.785528
H   23.459511   58.266781   66.567116
H   87.384140   70.864418   97.491776
H   80.972916   43.875263   22.396786
H   57.769909   20.783815    9.554102
H   47.234947   88.810394   20.758844
H   97.704140   55.650620   77.285858
H   69.411095   23.763823   83.060730
H    9.494204   41.061005   59.971966
H   17.957745   95.175140    0.886999
H    6.524244   69.244247   70.950729
H   10.746836   80.288589   72.848862
H   97.364532   63.133091   54.779602
H    0.626265   39.603237   45.303337
H   35.087410   75.192581   76.047241
H   58.968838    3.367784   20.034248
H   15.901268   11.782427   92.658043
H   84.089005   30.997330   82.732803
H   46.247467   75.228271    4.687228
H   64.113213   99.973671   55.159641
H   30.043333   67.871841   92.034218
H   15.489411   85.445564   95.015770
H    3.868796   99.498100   37.293129
H   77.294334   91.576927   99.958374
H   42.526123   96.501060   23.554914
H   39.779236   55.144562   47.618984
H   65.929703   75.771194   24.775364
H   86.271271   15.754473   30.822193
H   22.990002   58.894630   32.645336
H    0.868037   88.127724    1.705712
H   65.654716   29.098522   18.558832
H    9.811419   98.680061    9.103697
H   56.719418   85.111069    7.688446
H   19.720879   10.840172   96.907990
H    8.669750   63.350872   74.320457
H   42.903316   28.459904   45.276535
H   28.581179   55.237850    2.081662
H   89.600243   72.529663   96.834763
H   74.916595   65.048431   16.296898
H   47.053139   22.170267   74.451462
H    4.447790    3.368493   96.015701
H   48.617455   38.136681   84.666191
H   77.268005   54.052025   89.127464
H   77.452888    6.923512   42.588890
H   84.050591   97.497467   15.792137
H    9.322996   73.375244   35.061863
H   89.676506   46.842697    1.118154
H   65.587540   12.723289   35.993896
H   41.346058   89.226425   90.580566
H   78.157959   64.952271    6.972344
H   66.095558    9.124372   61.364918
H   88.507858   49.592014   87.725266
H   78.499176   15.843110   82.734390
H   91.156219   23.725716   13.767792
H    6.981458   86.275833   83.363480
H   45.351604    2.566870   57.635963
H   55.772141   62.294334   94.705673
H   38.887695   87.330284   38.348988
H   38.401096   97.974586   85.457100
H   82.185440   41.144650   61.927158
H   31.638063   65.995842    9.655505
H   58.109207   71.668823   45.269524
H   41.328304   81.003822   95.633789
H   79.332756   27.925892   14.893303
H   72.231743   34.381554   70.288506
H   81.386772   19.422342    0.747074
H   95.113052    0.976558   58.073563
H   68.991951   52.830357   59.726048
H   49.589127   57.749611   67.618492
H   28.080231    3.871003    3.126074
H   50.763783   29.096088   46.840439
H   49.076420   69.846077   39.012718
H   96.158043    7.851017    5.237596
H   36.505375    9.046722   56.929695
H   95.992203   50.801155   35.685837
H   80.594536   43.906712   17.464745
H   22.972666   50.780075   99.547401
H   43.973530   88.949059   92.794250
H   89.343155   41.780506   14.302647
H    5.947207   69.272964   16.302023
H   13.579711   51.664795   17.411400
H   71.005424   67.699959   36.096352
H   21.459208   17.579948    3.966429
H   93.645958   74.427040   15.231907
H   80.408905   55.042233   58.389996
