100
TIME:    5.957, STEP:  5957
H   14.474983   75.734947   93.692215
H   35.956520   27.664740   53.714306
H   82.158066    2.474903   53.419201
H   82.476471   87.221283   13.638967
H   41.814743   50.237244    4.187225
H   35.644138   94.754433   68.688774
H   40.763691   63.584232   56.298237
H   51.677841    3.958843   61.242878
H    7.193504   13.552228   25.114607
H   12.054045    1.917219   40.958378
H   46.149399    5.935462   65.940193
H   28.478745   22.284016   68.903328
H   63.938370    1.358260   33.104179
H   60.125725   86.714729   10.569736
H   52.957298   37.923935   64.426697
H   62.005875   90.707924   38.558319
H   45.080666   75.979362   15.677557
H   28.454542    4.971256   93.025429
H   38.049290   28.256655   77.199295
H   32.025070   79.308388   21.912836
H   10.779884   63.180111   95.560951
H   33.483734   51.991989   11.984665
H    6.208225   46.174324   61.913727
H   65.567757    8.091280   64.655914
H   16.528049   13.739395   80.533669
H   19.390955   50.556511   30.248348
H   48.400520   94.850967   18.162054
H   29.907722   34.492317   63.682373
H   40.700386   89.557861   75.581787
H   29.410358   43.404137   56.952866
H   50.501892   56.230556   38.080055
H   41.885777   87.926682   47.794716
H   89.960075   32.639336   34.450562
H   29.799721   27.799126   20.792040
H   32.697327    8.615782   87.468216
H   90.469711   52.006706    0.697526
H   51.152367   86.376587   77.853676
H   17.779568   49.939167   42.809994
H   93.624542   51.623344   67.034752
H    2.111000   54.509518    6.718370
H   28.132481   60.579704   82.690041
H   98.190353   64.963516   84.074547
H   62.551968   99.222305   31.754787
H   98.970093   12.630941   63.178856
H   39.930088   96.860428   65.866928
H    1.231310   76.537491    7.362162
H   88.273727   48.800247   82.646828
H   56.557552   56.725143   37.163303
H   39.158287   39.090797    6.845956
H   50.814060   21.400702   67.022507
H   43.092556   94.533249   16.223469
H   94.632164   10.974030   82.996040
H   32.438305   56.549438   56.896824
H   38.740616   10.006850   94.683128
H   66.489738   80.648254   51.016171
H    1.015196    6.267537   89.836456
H   73.898933   17.660316   22.547844
H   82.485260   14.322367   60.116928
H   60.091614   90.466530   54.162697
H   65.916901   85.662842   94.179344
H   35.473225    1.544744   49.940609
H   87.492348   72.495163   25.818375
H   78.481789    0.787662   24.981079
H   52.096870   74.213425   65.410385
H   68.768112   85.068680   50.318699
H   35.397911   46.132896   98.407661
H    9.626987   54.309635   54.666458
H   68.874992   58.224644   50.981647
H   53.799534   21.754295   86.619904
H   51.071724   47.762604   89.189392
H   32.871925   90.086456   90.689796
H   82.784988   53.823776   92.765366
H   18.583794   23.648994    9.008774
H   99.075020   72.399559   49.208488
H   49.381214   37.133533   52.979263
H   66.488457   89.360649   95.099335
H    7.811574   10.232500   96.400536
H   11.851024   61.208054   43.423203
H   47.171810   36.021137   84.144722
H    7.388405   84.513374    7.720315
H   27.441408   90.909561   36.024464
H   88.301575   83.102798   88.637657
H   94.667671    6.741011   97.257538
H   59.980644   21.912537   19.337536
H   62.272774   76.271904   70.288071
H   14.188808   27.863880   55.455399
H   65.009285   70.230354    7.596265
H   51.833946   28.388132   33.812950
H   79.307480   62.495918   79.470222
H   39.659885   64.190964   37.165718
H   67.807640   95.092911   59.262737
H   19.056574   43.502350   47.029724
H   67.308670    6.257741   79.668533
H   22.988823   74.577461   28.470293
H   53.599144   16.137424   52.971256
H   85.945343   60.496063   59.762146
H   89.763969    9.540662   94.596542
H   26.778940   81.210358   59.292770
H   24.935150   62.528584   46.076485
H    9.224144   25.768967   23.883663
