100
TIME:    3.081, STEP:  3081
H    8.967075   39.477867   96.325272
H   15.566673   71.792877   72.348557
H   32.714371   95.563995   87.173088
H   81.993744    5.712309   71.284241
H   67.574814   19.713238   82.166504
H   80.244514   97.870216   83.867821
H   91.495369   69.382576   31.391151
H   77.725769   55.146763   25.306561
H   77.891075   90.067719    6.148405
H   90.646004   60.621956   28.338419
H   13.667908   90.213409   42.971836
H   38.248039   78.125366   73.620216
H   47.279449   75.302536   18.902885
H    2.528237   95.579353   91.705040
H   17.977131   94.820267    2.670578
H   77.643845   42.253632   77.291359
H   76.351418   85.754898   53.863934
H   66.983482   44.871696   92.730652
H   93.254707    7.603573   25.681589
H    9.512947   40.386524   26.101404
H   81.445816   49.494644   73.617569
H   57.758820   48.174057   56.902664
H   44.608238   69.564644   44.199951
H   32.783249   73.633453   78.252190
H   19.389889   41.821014   59.293678
H   32.531780   35.805958    0.389642
H   96.400482   14.402974   61.105556
H   72.575371    0.250387   68.615257
H   78.163971   28.624151   11.532042
H   19.132629   14.585538   28.318871
H   37.311741   98.335251   65.620033
H   60.293404   67.384254   14.040428
H   87.378998   43.061302   75.357765
H    8.280389   91.367561   41.952759
H    4.185236   26.020294   12.340546
H   40.435574   26.513193   10.049008
H   75.306465   91.702133   51.236019
H   36.647789    2.563245   39.858715
H   15.021613   14.287588   45.740204
H   72.997009   23.750101   80.441383
H   24.686991   61.897717   14.932809
H   54.718437   50.136360   47.548828
H   37.779293   81.975784   24.017799
H   82.616714   64.410400   81.977501
H   89.401634   10.331989   19.760496
H   38.338474   21.682148   95.679085
H   65.804977   92.392426   55.036499
H   56.403957   27.105070   59.212746
H   55.088310   77.280693   21.571203
H   90.498589   77.637352   68.174225
H   43.309559   72.192764   85.902405
H   54.863255   77.845871   71.800896
H   72.788841   39.873413   23.929249
H    5.346867   56.940384   67.772552
H   95.479050   28.595062   26.553129
H   97.421249    9.293968   87.742294
H   91.574211    0.645517   49.016228
H   96.638908   85.924973   34.197220
H   33.268562   68.948456   74.953926
H   55.703476   64.605118   75.979622
H   54.052711   35.291279   74.176132
H   89.563896   99.264572   55.950592
H   83.229805   97.040825   22.197067
H   54.607040   58.554375   43.492733
H   54.613895   14.769315   82.489021
H   12.074409   89.107277   28.356804
H   40.374489   54.878994   15.812911
H   67.540001   93.742310   13.492217
H   10.457762   28.405312   66.998940
H   92.806702    3.107302   95.245422
H   24.197052   85.768242   25.190327
H   19.924910   49.272781   82.198547
H    6.104179   65.905724   82.750725
H   62.389477   54.408600   20.095558
H   10.719613   33.030354   34.959141
H   98.492104    5.035397   88.617371
H   46.690083   59.507065   45.538654
H   76.731308   49.262173   84.592072
H    9.258954   44.468861   52.057152
H   48.427345   41.156178   55.490280
H   71.172256   61.156017   64.132874
H   72.495850   64.348831   29.146574
H   12.733641   58.684174   23.349796
H   62.116848   75.806732   82.014923
H    2.309623   56.167301   49.083992
H   80.382812   22.223869   55.737225
H   72.927742   79.339119   70.457260
H    5.551863   58.622055   63.701004
H   19.622589   22.626932    2.993191
H   93.936432   82.514847   34.356346
H   50.109833   39.796764   98.526810
H    6.254355   27.214586   92.231392
H   82.952744   19.961813   57.262901
H   45.018559    0.117535   34.554886
H    3.320609   73.752960   86.885521
H   48.399567   74.066109    8.311316
H   18.047165   44.492748   59.998512
H   18.176374   42.470551    6.737719
H   61.941704   50.131275   86.970558
H   30.583719   99.571877    0.936577
