100
TIME:    1.269, STEP:  1269
H   31.504583    5.647598   97.984207
H   65.970695   73.549355   58.048367
H    1.568126   65.200981    8.439728
H   81.689606   80.366844   70.606316
H   83.804733   74.473473   31.296577
H    8.338276   99.833290    4.418545
H   86.461998   47.027279   89.690224
H   20.145401   98.387283   91.678352
H   22.433556   64.284210   20.207678
H   40.160759   34.604317   57.384628
H   82.215744   17.303196   17.513311
H    7.404591   87.299248    2.600704
H   62.539864   84.931007   99.001091
H   92.248482    1.164714   53.812435
H   95.935783   56.672749   89.772537
H   50.500809    0.739684   27.702621
H   22.041283   65.917984   88.895073
H   28.262230   32.989334   55.552536
H   65.025154   31.589563   30.218348
H   58.327126   78.865341    2.732077
H   88.972382   29.884438   22.801785
H   84.027763   45.774872   11.201619
H   68.801048   84.301521   96.041687
H    1.137655   51.901402   12.826826
H   84.197624   85.531837   45.925301
H   40.840282   89.797089   70.228668
H   52.652084   89.726212   25.148130
H   25.467010   15.672315    8.718463
H   38.764252   64.225555   97.186760
H   49.652035   59.432205   84.270714
H   66.020607   35.842178    8.994602
H   45.882542   17.452469   81.786400
H   59.745464   75.636330   12.118497
H   31.720131   57.426430   18.290373
H   49.228844   62.993477    2.002983
H   82.889221   84.170425   16.277884
H    1.513043   58.062843    8.457524
H   11.542068   35.727848   11.991930
H   93.670364   53.418587   20.498947
H   43.667656   93.383446   37.876324
H   48.518425   99.725700   72.241623
H   17.570702   68.812859   62.419865
H   22.171476   71.109756   93.134712
H   98.325676   34.038239    4.810489
H   46.578842   81.822006   64.701981
H   61.715641   87.121010   88.324471
H   49.479542   94.195404   38.466743
H   56.307186    8.448957   47.096447
H    2.126630   27.350777   93.852615
H   52.504780   50.064388   94.909996
H   43.447803   47.130013   66.796997
H   66.803932   45.985561   90.753922
H   35.203362   29.366821   29.167736
H   47.304111   86.500389   87.814590
H   39.735161   69.753052   11.174465
H   95.154037   11.198288   49.427048
H   76.700150   52.930595   76.679863
H   31.565834   57.046394   80.868607
H   90.360619   92.386368   14.061146
H   75.277084   25.327291   27.516197
H   39.750591   19.557938   15.455118
H   53.871857   16.133682   37.936905
H   60.309525   20.617275   46.499855
H   30.178835   48.697533   92.685936
H   82.691475   59.492146   13.740331
H   23.388466   79.187355   21.218534
H   85.754044   92.235779   28.330288
H   92.707130   90.112106   26.868139
H   20.148338   58.604080   80.643349
H   56.091904   11.969622   99.060974
H   81.735405    9.057878   46.927769
H   69.331375    9.409739   49.532417
H   24.250858   55.534977   29.209545
H    2.260408   69.076004   27.788155
H   23.355869   30.449335   97.596245
H   55.661228   88.903709   10.542521
H   82.172234   16.558271   13.488539
H   91.600250   67.745232   84.522217
H   22.378748   49.785007   31.838261
H   37.291458   39.841759   11.595649
H   35.715305   42.410046   55.833599
H   36.537189   52.515091   80.664261
H   98.091194   28.437063   50.765812
H   37.466000   20.751566   47.520882
H   90.539230   69.508560   24.737022
H   22.084385   55.668827   29.906609
H   51.908363   11.086296   84.053848
H   76.383560    3.695507   82.551323
H   82.017525   23.516123   17.817478
H   54.141647   57.066933   69.579521
H   75.955238   41.953800   60.260693
H   72.180107   90.947334   57.700409
H   66.705452   65.652390   17.088118
H   69.882179   90.206917   12.381223
H   34.652912   36.060516   45.246239
H   98.735748   45.619194    1.903269
H   61.875046   40.505642   64.207748
H   11.524484   27.042450   35.732536
H   48.259727   42.320454   38.752705
H   18.050613   46.108402   75.462959
