100
TIME:    0.364, STEP:   364
H   92.706947   88.640724   98.812759
H   91.144875   24.480225    0.961554
H   86.018463    0.091879   19.065910
H   81.537704   17.653326   20.210836
H   91.910736    1.933725   55.835533
H   22.371880    0.817481   14.793413
H   33.893566   85.916588   18.918047
H   91.276611   20.092968   74.773323
H   44.680183   51.296310   77.175240
H   64.893044   21.612617   21.943308
H   66.396637   80.888931    4.687508
H   41.948315   41.936012   67.019127
H   20.108685   39.684982   88.950310
H   37.058735    3.954971   84.940559
H   84.929848   37.509087   33.274883
H   86.888062   79.899544    2.824664
H   94.801506    6.068921    6.496423
H    8.923072   76.999268   86.927048
H   50.932358   93.622498   82.539429
H   82.796242   97.900024   41.020836
H   42.676270   19.979774   47.362747
H   97.250404   44.580376   88.261604
H   80.884102   91.661827   21.935806
H   85.221970   41.047367   80.041397
H   16.564829   57.306583   39.246414
H   44.989948   16.763485   55.055168
H   30.690279   27.345585    7.189299
H    1.828276   73.429474   78.806900
H   19.086136   82.117058   39.965240
H   14.951148   81.830734   12.325706
H   30.420473   54.684212   80.608025
H   88.740631   42.454033   65.566780
H   95.997009   41.849892   30.588949
H   93.481728   40.364197   56.416344
H   71.724037   31.404678   46.892830
H    4.203156   13.079721   19.391859
H   14.711690   91.204933   37.146984
H   48.944504   52.291988   48.127148
H   34.355946   72.737663    7.238509
H   28.909035   78.107155   66.673943
H   10.366962   68.668800   50.915974
H   98.906914   28.193903   19.901327
H   14.376540   65.682739   27.765545
H   56.115402   18.871817   16.321907
H   25.081505   17.530178   87.255676
H   73.302574   70.046928   84.745720
H   39.923573   45.377232   30.733587
H   56.258854   99.130722   91.100220
H   75.668694    2.303560   29.953459
H   33.524029   36.289707   58.205116
H   43.516850   34.502098   57.254841
H   22.822336   29.962128   50.166862
H   16.429750   24.119324   81.729958
H   68.258179    1.262885   47.878376
H   11.780977   90.414917    3.494850
H   94.021683   12.149397   80.235382
H   19.328285   79.043800   90.606789
H   98.954773   42.511497    4.178862
H   18.985199   54.148682   83.539322
H   34.998215   55.767006   53.256554
H   82.661880   61.641487   86.015411
H   85.992065   24.557297   78.885590
H   98.922188   82.331245    8.586188
H   68.035652   43.774551   17.257360
H   46.770424   31.771759   29.459471
H   78.984322   24.177601   67.708382
H   58.364342   60.944798   84.635849
H   55.221840   38.355209   83.603905
H   75.044884   23.631599   37.403271
H   37.760185   66.453270    0.965328
H   10.473394   70.637993   57.781803
H   43.953358   39.445137   83.272285
H   83.258041    0.303058   52.415913
H   22.179031   26.344728   81.575005
H   79.721115   29.161627   28.991962
H   34.263866   30.901182   71.436111
H    0.003357   94.995232   97.474304
H   49.081711   26.919331   34.542637
H   79.000633   52.435711   21.747185
H   81.674240   89.130196   89.562317
H   18.005001   33.047405    1.744440
H   68.635231   46.604752   56.342743
H   40.827221   13.332942   64.569061
H   75.210297   43.309544   30.182777
H   34.606400   26.115219   12.466664
H   42.915569   22.424164   67.060509
H   91.465446   76.887154   40.900082
H   61.814850   76.151344   91.955391
H   63.237007   73.905327   25.222664
H   34.153542   94.309067   37.224560
H   38.918949   93.086823   41.148754
H    5.219028   22.882231   40.459618
H    8.639137   38.537598   47.075005
H   82.409889   35.311722   51.360584
H   50.298740   17.124310   24.450832
H   23.986526   81.357414   48.647926
H   33.709373   88.569725   16.255074
H    8.201644   19.336914   50.211487
H   91.372063   38.419353   14.561695
H   61.847118   69.354607   62.627670
