100
TIME:    3.490, STEP:  3490
H   81.308014    1.970619   95.950821
H    4.188964   93.966599   98.148209
H   39.744682   24.988277   82.373878
H   82.062393   88.861504   48.865017
H   63.911438   52.496395   71.076523
H   73.903816   97.427116   24.372145
H   70.058067   96.998314   63.375481
H   45.579178   90.531570   87.753624
H   67.837074   50.744156   80.404366
H   79.468651   66.494591   44.355545
H   75.623734    6.670321    3.575379
H   22.636566   98.626541   44.506676
H   21.263844   50.557587   78.250999
H   82.276787   94.318703   22.830395
H   22.952644   58.286362   83.011635
H   61.199219    6.480902   43.341164
H   43.462166   12.807834   91.096817
H   75.720665   24.982124   78.551453
H   99.626610   24.762766   47.228107
H   98.494316   31.702333   53.948051
H   57.175171    8.776253   62.515526
H   96.970047   48.717010   22.072510
H   39.147499   66.238274   32.498367
H   94.782661   78.538757   47.876339
H    4.762309    9.384224   62.314247
H   30.655287   23.619635   62.052322
H   61.133213   97.401077   69.219765
H   38.065845   19.341095   82.132927
H   87.057175   65.732071   92.198708
H   34.814590    4.462108   60.833496
H   53.410000   35.010746   33.261253
H   86.118019   56.084274   76.177284
H   16.188040   13.137436   12.203717
H   25.562500   53.885048   24.722446
H   94.018478   95.102745   37.244637
H   75.999168   58.643917    8.640035
H   14.535760   76.724106   83.463737
H   19.744461   95.079506   68.720009
H   97.757263    5.377222    6.105600
H   34.474667   85.461227   12.619795
H   96.735519   75.932907   24.568586
H   17.959862   68.493042   66.764389
H   41.302250   84.428436   53.559261
H   56.498779   71.262848   21.967978
H   53.923321   94.194702   54.759701
H   33.061840   29.483204   97.339149
H   69.000290   14.635709   58.965111
H   56.425800   31.316080   84.519371
H   67.043442   43.407288    5.255561
H   99.073509   83.859474   39.568859
H   43.278355   32.706940   90.214828
H   74.740341   39.893311   44.950565
H   81.270149   42.244934    0.175009
H   95.875023   50.265800   85.821075
H   62.914322   64.439392   30.030840
H   97.932999    8.863363   73.818970
H   17.503290   88.844048   87.915413
H   66.183586   47.300385   23.661438
H   65.524513   86.229355   43.554203
H   28.714943   96.040253   64.346687
H   79.852364   16.271591   42.287540
H   75.047691   95.457657   37.443367
H   10.995965   69.131767   94.150688
H   82.691887   60.779236   32.387150
H   70.848137   82.103767   20.577738
H   86.949043   68.774605   52.539841
H    7.558969   69.018738   35.560223
H   39.287697   17.134035   33.044781
H   30.843269   99.017197   41.346310
H    1.094316   23.679083   94.384186
H   11.208582   57.940315   20.283463
H   86.200607   35.698944   12.142776
H   79.436752   45.675732   72.266106
H   53.385433   28.524906   95.790672
H   30.438913   33.613873   65.963661
H    8.161393   31.248549   61.095577
H   83.824562   24.056297   52.771793
H   95.946869   22.517588    7.178516
H   28.871077   43.267498   56.622330
H   28.369270   18.880402   20.254471
H   79.173019   65.387314   88.578262
H    3.182342   67.019913   94.945435
H   38.611202   65.511658   62.305149
H   90.256607   10.805635   44.658844
H   82.394974   30.582958    9.436035
H   70.971619   37.247688   84.139313
H    0.243921   49.601494   89.959900
H   12.134394   25.876343   59.447868
H   28.111698   99.855125   99.647102
H   57.776440   65.689529   48.975525
H   66.847778   61.879993    7.164224
H   36.518257   57.972588    0.026204
H    9.170230   32.234436   88.891502
H   84.549568   24.926548   62.130058
H   96.249153   37.116909   96.284233
H   82.181259   57.914803   87.185753
H   85.582794   67.964561   36.476768
H   19.677298   45.952942    0.193387
H   42.457787   51.894314   52.713531
H   55.987080   89.074776   61.537872
