100
TIME:    3.938, STEP:  3938
H   51.011139   60.886658   95.540665
H   91.726891   18.256105   26.407515
H   47.445366   57.219353   77.117043
H   82.137589   70.404472   24.307447
H   59.898743   88.405571   58.929062
H   66.958504   96.941765   68.740135
H   46.579159   27.250072   98.409660
H   10.367264   29.289043   46.620342
H   56.824379    7.670748   52.204693
H   67.225487   72.927208   61.899979
H   33.951859   24.696278   60.420551
H    5.536469   21.081995   12.618067
H   92.766464   23.453094   33.724030
H   60.094170   92.937843   56.924633
H   28.402596   18.269371   61.478031
H   43.186523   67.297173    6.152497
H    7.436579   42.438297   31.880026
H   85.290977    3.195583   63.019985
H    6.604105   43.558174   70.830170
H   86.422050   22.188417   84.450005
H   30.590210   64.177979   50.357811
H   39.920242   49.311737   83.921219
H   33.166054   62.594719   19.679340
H   53.158638   83.911804   14.602449
H   88.739166   73.856949   65.622841
H   28.599379   10.271125   20.062090
H   22.500334   78.779984   78.106483
H    0.265447   40.252228   96.939568
H   96.798386    6.378402   71.020973
H   51.993301   93.373894   96.448730
H   71.041939   75.183083   97.816917
H   14.404786   43.707809   34.703651
H   47.745289   80.359703   52.563095
H   44.491791   12.828474    5.850083
H   82.882736   61.237511   64.523514
H   14.956537   93.835846    7.093655
H   57.503738   60.317856   18.764151
H    1.228647   86.883217    0.336193
H   78.849060   95.616447   62.690758
H   92.277946   43.521080   47.868366
H   66.117355   91.306931   35.123272
H   77.696121   88.597534   87.812241
H   45.161137   87.114960   85.919487
H   27.890627   78.768707   65.770630
H   15.063688   76.516968   93.095642
H   27.282055   38.028126   99.157509
H   72.500290   39.000206   63.268333
H   56.449726   35.930084   12.239006
H   80.141098    6.305217   87.385712
H    8.469157   90.674904    8.236340
H   43.244175   89.454720   94.938461
H   96.512802   98.321930   15.538944
H   90.560188   44.842590   74.157417
H   85.498070   42.954765    5.590136
H   27.244400    3.704712   33.840992
H   98.493546    8.391684   58.567993
H   45.903194   75.917290   30.524115
H   32.824211    4.991869   12.120955
H    0.859400    5.158404    9.160320
H   99.152374   30.475889   51.604500
H    8.112381   95.437645    7.359106
H   59.147301   91.287735   17.171394
H   41.411289   38.561455   63.429985
H   13.454439   63.216248   20.222599
H   88.628410   46.322781   62.297932
H   59.427559   46.503120   79.029099
H   71.615311   84.508972   57.189129
H    8.341196   42.756119   54.461773
H   53.172859   66.826767   13.247272
H   10.170664   46.213120   93.440826
H   96.982323   27.458614   14.908707
H   49.260567   20.830780   44.943989
H   50.226791   23.517040   60.780769
H   43.521175    0.174448   69.171532
H   52.037182   34.253033   99.924599
H   18.753046   59.962860   30.952450
H   24.499483   85.227097   60.694645
H   16.994732   93.224190   31.920900
H   50.353012   41.951580   61.622818
H    6.398225   94.481590   81.659050
H   87.936691   70.022079   15.354112
H   36.797745   69.945694   57.484497
H   66.956062   72.990173    4.975018
H   21.078680   49.142403    3.742127
H   60.581497    2.559431   66.007492
H   60.661915   53.705208   15.250056
H   30.164846   17.028252   11.322535
H   19.344599   90.008583   54.789177
H   37.409286   74.910789   95.983040
H   18.166197   47.256737   64.988922
H   85.181763   86.072075   16.625162
H   69.668549   91.660698    8.563118
H   37.886848   45.677307   23.536112
H   27.850338   52.102371   92.337852
H   88.504036   96.986870    6.578605
H   19.184280   40.223396   64.046104
H   50.022247   93.674522   10.710882
H   21.321341   49.767395   93.022560
H   21.115990   53.825466   15.187653
H   83.815193   77.576729   18.379721
