100
TIME:    9.537, STEP:  9537
H   72.373688   47.433144   90.414627
H   37.086838   21.659634   79.443901
H   43.703136   60.033791   11.390085
H   83.077362   39.726860   17.406710
H    9.739531   37.189590    7.119225
H   80.128052   90.875954   23.226589
H   53.134830    5.321040   36.258999
H   70.296906   13.674154   32.538086
H   19.190208   69.348267   99.766609
H   14.268526   53.322193   81.132851
H   13.146515   49.982895   21.095137
H   91.839500    1.731273   14.075081
H   35.606903   84.726570   77.346405
H   82.866577   75.680183   83.010063
H   96.442390   18.140968   92.266624
H   18.060917   77.587997   41.386780
H   57.198219   12.769934   41.579086
H    5.010108   30.768349   68.925369
H   93.810196   78.442764   65.806168
H   35.571850    3.285006   65.655907
H   98.337128    6.778965   98.392868
H   76.701828   56.744492    7.114604
H   58.409508   17.065428   59.485901
H   32.932766   50.918427   98.773163
H   88.487167   29.828712    6.969471
H    2.637403   44.952744   93.407585
H   39.692802   46.035778   89.194077
H   27.837587    1.594627   82.015373
H   18.544231   14.363413    6.353471
H   66.683968   54.798782   41.552376
H   91.396202   77.256561   54.842010
H   67.929337   89.014999   16.376183
H   42.131218   70.710159   56.965233
H   81.062775   99.713646   69.972862
H   43.606255   37.585243    5.290812
H    1.672933   32.411915   89.444130
H   94.521606   55.269783   59.943623
H   69.808388   84.422783   95.441490
H   42.512859   73.622337   20.106182
H   64.913666   19.360580   88.386063
H   83.465363   83.419815   67.032066
H   96.487328   79.002518   66.840111
H   93.362579   20.698822   90.340416
H   70.380898   72.727516   13.211215
H   29.392134   55.624271   72.220901
H   55.023064   44.814495   21.906458
H   16.253696   43.494984   17.016779
H   56.769711   93.598007   58.672688
H   43.804924   42.595516   64.041534
H   25.964911   75.898643   16.705536
H   44.385197   49.024117   51.601013
H   68.627228   78.776672   47.991493
H    6.689053   77.307495   48.979134
H   55.833107   51.601837   52.657356
H   81.444527   94.381607   81.454758
H    5.474081    2.501725   67.964798
H    0.857341   14.360571   63.035515
H   15.911407   76.235008   67.903831
H   42.442501   41.742867   79.330269
H   29.675289   60.834843   92.355629
H   61.305492   35.056751   70.821724
H   60.431145   39.173019   63.838326
H   21.527195   56.495384   79.489746
H   97.928162   93.715073   68.212769
H   10.862041   99.137886   83.707695
H   15.476694   68.161095   10.086534
H   22.397293   78.079803   27.509056
H   21.580109   62.968697   22.126358
H   32.224869   64.518341   62.090252
H   23.716492   27.663347   81.615799
H   19.181942   46.500622   47.753395
H   87.918388   34.934959   55.103130
H   85.161880   46.570522   17.219654
H   20.264194   45.822971   36.496895
H   21.877443   42.357967   24.403219
H   51.120300   18.804607   54.209351
H   32.946236    0.347862   59.885918
H   80.037636   27.127480   41.143379
H   18.847975   25.505543   24.090441
H   31.821358   89.493263   99.300270
H   97.518242   27.947001   49.996925
H   56.943794    6.325686   89.138390
H   21.109423   66.610634   38.198971
H    6.279927   28.261261   92.360161
H   87.959015   52.322517   23.248682
H   31.797047   59.365868    4.061353
H    4.109535    9.934419   78.304100
H    9.409508   41.916725   96.696640
H   53.604984   63.167305   50.190437
H   23.139692   16.897408   65.138901
H   14.316593   88.400574   34.866112
H   83.940323   12.753181   15.245584
H   96.793716   13.671476   56.515434
H   67.439369   91.654221   72.226463
H   91.700714   95.462654   35.234718
H   81.638672   19.126490   74.850388
H    5.600438   14.987424   88.706207
H   19.868692   58.349796   87.420799
H   54.392296   77.985268   46.214390
H   31.591187   33.900326   79.010788
