100
TIME:    6.112, STEP:  6112
H    3.993101   61.520622   93.550308
H   31.675713   36.064434   63.488132
H   84.823547   13.625827   51.599247
H   82.502487   80.835480    5.142596
H   40.426422   62.661179   99.984772
H   33.240002   94.586510   84.038353
H   32.640713   74.049904   68.419441
H   39.495148   17.368069   47.010815
H    3.383296   98.649399   15.357907
H    7.819902    4.142939   47.027256
H   31.731674   12.172016   51.010269
H   22.562416   30.053410   57.870079
H   54.047470   91.985222   17.702568
H   52.450935   86.236977   22.365734
H   54.842293   24.078880   56.975475
H   55.773804   77.151100   25.691818
H   32.616524   86.232124   29.787817
H   31.769247   97.429321   87.651894
H   40.462887   34.759529   85.366028
H   27.849464   76.016151   32.465965
H    1.581980   47.748936   91.353416
H   48.343735   52.197754   98.785049
H    4.138604   44.913719   57.479141
H   51.165531    9.945528   53.143795
H   10.984550    1.446724   81.678383
H   18.684378   45.974106   15.672752
H   35.034088   88.408401   21.237883
H   16.829243   41.727196   68.805283
H   44.070671    3.620730   68.254669
H   35.353626   39.567924   69.275101
H   56.602699   70.129662   25.816948
H   51.672611   83.643463   33.445580
H    0.877501   21.299181   48.414185
H   36.348915   13.594312   14.262556
H   28.844074   96.898781   96.906189
H    3.943633   64.146828    0.210072
H   66.018440   80.700317   90.067116
H   11.373283   47.102215   53.747456
H   87.082642   48.245964   52.013924
H   87.511261   39.998371   18.913481
H   17.539734   65.898079   86.341774
H   85.127838   65.571350   91.988213
H   63.887074    0.151849   42.950058
H   89.072098   15.232565   78.334435
H   26.485363   90.744247   79.130478
H   99.230858   79.493881    7.991873
H   89.484665   57.229507   84.134483
H   56.565830   58.321594   46.753834
H   43.688660   26.254150    0.662704
H   54.064922   23.759916   56.181694
H   43.081913   79.569183   17.857170
H    2.164881   96.591248   72.821327
H   35.653675   57.448181   47.894024
H   35.151558    7.477658    1.522911
H   54.148582   94.231094   52.334721
H    1.208248    6.104492   84.559891
H   83.725975   13.187703   37.289589
H   70.943512   99.684181   56.124619
H   72.316498   97.015526   42.263817
H   55.688751   97.575912   89.770775
H   45.250599   94.336075   37.856068
H   81.991096   71.052444   18.804634
H   89.004173   90.210854   14.352264
H   62.741058   75.057770   61.202061
H   74.919769   72.689682   64.752983
H   25.876350   38.427361    7.572710
H   97.190842   59.667797   62.149673
H   58.168129   67.089088   58.391544
H   61.525173   10.616982   76.899292
H   54.211411   55.559196   88.863007
H   27.949638   79.540421   88.830818
H   70.003922   48.679657    4.113414
H    8.477077   15.982483    5.034203
H   95.662163   62.589245   39.998741
H   56.853786   37.354671   64.729141
H   70.152016   99.294121   84.669189
H   21.884586   96.798195   99.141701
H   19.133205   51.072365   51.983727
H   54.604176   35.565853   85.873619
H   99.787338   76.069923   94.366997
H   30.474665   92.513107   45.288609
H   99.935562   84.107971   75.672112
H    4.471535    9.332950   12.018940
H   70.644493   35.176537    5.180960
H   54.725700   66.577309   55.262512
H   10.621037   33.557457   66.219025
H   75.361382   58.960594   14.987249
H   54.326775   15.984892   32.205856
H   82.524033   53.865623   78.202522
H   25.955503   57.813473   42.705994
H   74.150871    3.462768   62.536053
H   30.525003   55.159988   49.982567
H   77.244507   10.908734   91.654922
H   37.968616   83.981148   38.921722
H   50.919472    2.253094   56.533115
H   98.747696   54.375153   51.756241
H   77.460655   18.435472   85.682434
H   26.479753   88.880417   56.181465
H   17.551270   63.196728   33.093201
H   18.851542   21.791439    8.951667
