100
TIME:    2.302, STEP:  2302
H   61.647369   10.916167   97.038467
H   37.235970   29.555128   23.209372
H   19.324118   39.518692   96.313881
H   81.862991   37.808556   13.982252
H   74.552246   57.272968    3.288752
H   92.321297   98.714165    6.720190
H   32.323009   16.779053   70.472252
H   38.953636   87.754333   96.831429
H   97.040382   64.965469   55.185291
H   11.933229   49.436668   97.832054
H   86.128601   58.868458   18.009527
H   67.981567   39.077896   29.069715
H   96.832664   22.433372   96.329216
H   41.099724   97.980446   32.423420
H    8.500542   64.403290   40.117409
H    8.965725   10.387824   41.955826
H   38.990082   34.231941   82.944824
H   50.337372   82.754280   19.739174
H   81.118492   74.926102   84.640778
H   30.498734   56.926723   73.063515
H   27.672684   27.045933   94.763824
H   83.075333   47.139923   23.241684
H   55.009010   75.900200   66.487320
H    5.160790   64.290588   36.107635
H   47.250725    3.605064   53.546387
H   36.103703   59.014538   73.404854
H   63.575867   46.786465   45.647038
H   38.305870   63.889294   42.864010
H   61.225571   57.947334   48.355064
H   89.262764   33.865707   66.390984
H    6.656688   28.478575   27.254841
H   11.106813   88.910881   86.156410
H   32.507053    0.057531    5.179295
H   75.366020   62.758194   74.771652
H   23.550713   84.906494   64.902672
H   72.704361   65.319633   12.726464
H    0.591188   20.232027   89.854004
H   68.843529   16.820934   84.887184
H   47.905838   31.258677   21.231207
H   46.370487   96.677315   19.150362
H   77.924370   35.170704   96.578659
H   24.730560   15.171971   10.951504
H   31.069311   77.304352   67.748192
H   32.360329   51.353157    5.811710
H   56.973331   41.065060   53.099586
H   48.388592    6.823902   92.517250
H   59.714863   50.028595   47.553886
H   56.362354   19.084589   11.012596
H   32.319534   41.797359   52.647713
H   74.166405   65.786415   22.659992
H   43.368992   47.400505   77.688766
H   17.005621   50.131153   22.939610
H   56.632248   35.356506   69.174370
H   23.384777   69.650459   33.396515
H   57.499008   60.311565   19.939405
H   96.446548   10.112658   14.261292
H   42.188030   23.124031   74.926765
H   54.645111   59.492172   54.261795
H   71.829933   36.034466   34.757256
H    7.111347    4.726447   98.136238
H    4.912218   71.516914   34.913609
H   17.210270    6.516718   91.195709
H   30.375622   50.174385   75.632004
H    1.113048   54.316803   64.644753
H   23.691711   76.987671    9.941598
H   59.929726   27.833687   82.297554
H    2.874337   27.949461   78.202591
H   21.351067   49.191345   76.251511
H   71.634819   84.379295   15.854321
H   77.021301   63.928772   96.885773
H   48.933998   38.771950   34.536968
H   84.156555   75.126129   25.162970
H   56.897095    4.441387    2.720975
H   79.530510    3.703755   66.393852
H   73.159081   31.919172   75.905014
H   80.079765   55.110260   41.034061
H   75.962189   27.024534   31.762037
H   40.132473    0.197974   41.571377
H   71.900604   46.757030   43.362106
H   86.630867   83.582642   22.601723
H   55.930492   53.096905   17.573997
H   14.044422   59.261368   94.285255
H   63.450573   45.680237   49.153965
H    8.526334    9.146700   53.167572
H   40.241638    4.891903   24.599243
H   98.307800   93.610481    1.641001
H   20.900106   35.978775   33.311646
H   93.012817   20.990662   71.807442
H    3.454772   66.000481    9.366476
H   62.811741   14.563812    6.509740
H   18.229980   97.733566   82.075760
H   48.614185   68.635063   77.385033
H   32.984165   96.609604   97.003860
H   69.725563   52.866909   82.030220
H   16.790836   43.530907   68.984306
H   84.057327    4.828373   48.547729
H   79.880569   99.787758    4.799212
H   15.317294   35.837830   19.202682
H   99.051659   46.773312   52.222038
H   82.203293   19.574368   75.970123
