100
TIME:    6.978, STEP:  6978
H   45.428299   82.104897   92.757462
H    7.761466   82.991676   18.090088
H   99.715851   75.929390   41.430988
H   82.647842   45.157379   57.676121
H   32.669739   32.074810   76.503296
H   19.807858   93.648308   69.801651
H   87.253098   32.525677   36.141842
H   71.429253   92.287964   67.497932
H   82.095314   15.387271   60.847919
H   84.165565   16.578737   80.934669
H   51.178467   47.017445   67.592369
H   89.509445   73.461761   96.227882
H   98.786049   39.614620   31.652275
H    9.572624   83.567726   88.268684
H   65.360786   46.723473   15.331249
H   20.953571    1.407497   53.806152
H   62.977852   43.510723    8.623223
H   50.288822   55.289520   57.630836
H   53.947887   71.090439   30.989979
H    4.519951   57.624401   91.427330
H   50.192307   61.536278   67.845512
H   31.367996   53.347382   25.037094
H   92.575844   37.870598   32.702682
H   70.701897   20.305391   88.826584
H   80.011299   32.769836   88.074013
H   14.705410   20.389359   34.221825
H   60.359119   52.411034   38.422832
H   43.758163   82.149162   97.427048
H   62.900780   82.190895   27.317732
H   68.560684   18.134636   38.119164
H   90.683327   47.786018   57.301857
H    6.352497   59.713894   53.275642
H   61.879169   57.938530   26.430304
H   72.938789   34.230576   77.779541
H    7.292603   31.337502   49.599495
H   79.223412   31.976105   97.487862
H   49.079636   48.986450   58.304417
H   75.577797   31.251888   14.860114
H   50.529972   29.376673   68.092300
H    5.944199   58.927105   87.049179
H   58.354599   95.616615    6.743881
H   12.146214   68.967377   36.199490
H   71.339935    5.346882    5.503006
H   33.774654   29.768087   63.006538
H   51.365425   56.573994   53.236637
H   88.051720   96.011520   11.510130
H   96.250290    4.324853   92.446159
H   56.613522   67.241119    0.337044
H   69.001595   54.531185   66.120926
H   72.243896   36.943058   95.629890
H   43.022449   95.962296   26.984818
H   44.258572   16.232170   15.974221
H   53.618259   62.469543   97.596901
H   15.099144   93.349136   39.735489
H   85.195908   70.124260   59.701588
H    2.286850    5.193544   55.079208
H   38.626438   88.199013   19.653450
H    6.459714   17.901476   33.819199
H   40.616692   33.610744   75.783302
H   98.543694   64.141663   65.139671
H   99.877739   54.061096   70.335281
H   51.255074   62.991837   79.622162
H   47.797413   31.117298   54.968048
H   22.206039   79.775208   37.687550
H    9.290755    3.522552   45.400013
H   72.677917   95.376396   58.777664
H   27.710840   89.610016    3.959395
H   98.347404   16.616583   99.791351
H    4.683429   48.391754   22.584255
H   71.756065   99.114189   87.039459
H    0.448519   20.618698   78.444527
H   98.631142   19.921360   67.533821
H   52.012772   73.148621   82.833069
H   76.594200    7.782260   88.544922
H   98.609245   38.590191   30.378277
H   90.620674   54.798122   26.398905
H    0.533797   21.836758   14.497263
H   59.819454   94.445717   99.807259
H   96.134636   33.022137   95.533134
H   57.317184   28.895329   19.760124
H   47.421761    1.472613   97.048279
H   64.919106   89.724106    3.225327
H   59.250580   23.814856   94.492294
H   30.225239    9.281485   26.084827
H   12.558760   12.406262   71.313560
H   90.690964   65.370148   26.356857
H   33.199635   95.995018   56.281349
H   68.254448   46.687679   23.226868
H    0.495291    5.648783   71.119759
H   49.390232   22.181622   73.662109
H    9.591267   50.222839   80.824387
H   94.600235   20.291626   66.481377
H   32.756626   36.894283   58.624031
H   21.663647   36.519981   97.314880
H   35.947884   24.682732   76.433563
H   70.275772   20.178175    7.026142
H    8.721792   68.132843   35.878448
H   24.808168   31.731209   38.798302
H   76.297295   66.934898   60.557629
H   72.640648   99.568832   25.527340
