100
TIME:    0.678, STEP:   678
H   71.472084   59.845253   98.525284
H   82.410408   41.505436   20.768187
H   91.413422   22.681873   15.379036
H   81.590408    4.715727    2.999059
H   89.098267   27.102211   47.321465
H   17.502762    0.475731   45.890446
H   17.436924    7.118608   43.473255
H   66.596832   47.257015   45.942810
H   36.961464   21.106583   57.410492
H   56.311897   26.119995   34.240074
H   37.189117   93.523483   74.440483
H   29.962978   57.675301   44.667900
H    0.135485   20.687637   57.740524
H   21.511097    2.986837    8.835438
H   88.748482    9.462625   18.181116
H   74.263092   52.435032   76.760239
H   69.556358   26.834213   35.084999
H   15.632632   61.729523   76.041306
H   55.821838    6.794754   99.083649
H   74.296547   91.316833   62.442558
H   24.043060   88.720123   38.841492
H   27.358997   44.994820   61.526150
H   76.691750   89.108086   12.951200
H   56.047989   44.813297   56.721588
H    5.335301   32.404011   41.565125
H   43.550175    7.407884   25.624594
H    3.613670   14.292916   13.420294
H   75.332756   88.085938   89.184769
H   25.913681   10.605647   25.122475
H   26.990438   74.059311   37.287228
H   42.772343   82.842445   55.760551
H    8.566515   33.779457   36.498207
H   18.114876   18.876486   58.876549
H    6.749027   11.587983   43.187675
H   63.919075    7.668567   66.012604
H   31.504951   37.746044   18.311430
H   44.827839   79.705910   61.889050
H   35.967377   46.544872   70.285011
H   20.239498   66.034691   77.144119
H   99.333778   48.711529   91.377678
H   88.908066   79.444344   58.316074
H   70.686394   42.287392   34.653614
H   17.080847   67.565704   50.445198
H   36.063980   24.133818   47.023689
H   97.844322    5.141704   14.125696
H   69.292290   75.949760   85.977074
H   43.239124   62.316730   33.416695
H   56.275623    2.364023   10.528686
H   84.848747   76.296799   17.427908
H   40.109615   41.068989   36.244377
H   43.492893    4.186697   60.565601
H   38.081779    0.825208   29.552467
H   22.943468   25.940002   63.494354
H   60.988842   96.140572   61.734699
H   86.784103   17.941565    6.159361
H   94.414566   11.819399   69.546082
H   39.233574   69.983528   20.471016
H   75.573425   12.858391   96.090897
H   43.748825   67.415680   59.434040
H   14.278361   79.901398   44.325645
H    2.469030   47.040123   61.532318
H   74.847595   21.634628   64.679504
H   20.220917   60.919106   87.044533
H   89.596321   45.482635    8.731314
H   59.234886    6.692900   58.702820
H   59.694710    8.567677   86.274513
H   33.171898   71.801117   99.795395
H   33.531807   56.312851   98.614922
H   90.693138    1.069574   17.708797
H   44.120583   82.245262    0.305032
H    0.501799   49.272114   54.015873
H   18.063139   29.024147    6.261130
H   62.784988   84.769844   44.364201
H   15.267703    6.473912   62.913048
H   94.861496   29.608412   52.795094
H   41.687923   51.026802   50.308208
H   28.512630   67.780876    3.031131
H   63.834000    6.387561   51.884602
H   94.049980   51.516453   25.248398
H   66.275131   72.030190   62.510864
H   24.149792   36.295879   20.511044
H   92.193855   48.655411   30.084332
H   60.694180   18.573687   94.476105
H   96.809296   70.178932    1.502296
H   19.316496    6.473741   82.028023
H   35.687954   33.958126   88.865532
H   12.436819   54.056801   55.872768
H   66.869629   51.011604   88.692543
H   69.753120   56.422020   22.653351
H    6.391876   81.387039   48.450481
H   51.769108   10.042253   47.779858
H   28.452089   46.497887   46.441505
H   28.785187   47.945236   71.366692
H   12.758543   54.359375   72.531731
H   44.870243   88.998230   31.665272
H   49.921616   68.957634   32.429512
H    8.786182    6.589467   98.196381
H    9.354541   22.010437   45.187851
H   76.413750   39.772884   88.258919
H   81.347549   61.290112   32.385239
