100
TIME:    3.130, STEP:  3130
H    5.653481   34.984306   96.280411
H   14.203558   74.449387   75.439468
H   33.556633   99.089310   86.598122
H   82.001968    3.693384   68.598572
H   67.135925   23.640804   80.837875
H   79.484871   97.817131   88.720268
H   88.927086   72.691063   35.223015
H   73.874466   59.385738   20.807392
H   76.686562   85.356583    3.063942
H   89.306908   61.325523   30.257341
H    9.110046   92.185043   38.252102
H   36.377716   80.581497   70.132286
H   44.162743   72.337982   14.032719
H    0.102100   95.428322   95.433723
H   18.573219   90.443344    0.315134
H   75.673706   37.967926   73.223976
H   72.411140   88.996094   58.324596
H   68.030235   42.488838   91.031921
H   94.018089    9.659312   28.262957
H    8.192917   39.346127   29.437555
H   78.538086   44.616402   72.287445
H   62.456497   48.239105   52.729858
H   43.954018   69.166130   42.798050
H   28.230621   74.221130   74.613228
H   17.637512   37.934944   59.655556
H   32.307102   34.346111   95.796669
H   92.175339   12.366012   62.077915
H   68.440697    2.537521   70.234734
H   79.229416   33.069717    9.215914
H   21.011364   13.372706   32.214111
H   39.240383    2.729203   61.743309
H   63.387306   66.030205    9.504250
H   90.830292   39.476173   79.772072
H   10.350810   86.876991   39.888412
H    2.967144   22.316284   15.324165
H   44.695858   30.362440    9.880593
H   80.006386   89.907700   55.097042
H   34.622696    1.666445   43.316364
H   12.953248   13.220087   40.991684
H   68.381577   19.162893   84.296425
H   21.338316   63.578876   16.087141
H   50.314598   52.335663   49.850937
H   38.201359   82.269623   27.557133
H   79.487671   65.231354   86.768639
H   85.151070    8.398767   23.953676
H   37.706310   22.616749   95.877968
H   66.187790   95.057159   55.507164
H   56.406574   27.609568   62.244591
H   56.520493   73.222282   19.616579
H   91.525902   78.382790   64.746857
H   43.305820   67.462189   86.419052
H   57.244617   73.299225   68.584373
H   73.804939   40.157532   21.083389
H    4.212261   56.140739   69.934845
H   91.577652   32.889366   26.969774
H   97.482559    9.242392   86.074219
H   94.680824   99.231621   53.676521
H   92.990227   81.297577   32.935135
H   37.132950   71.018784   71.192345
H   52.470131   68.371185   74.585945
H   57.143623   33.012722   70.355484
H   87.824791   98.808487   53.733345
H   86.556236   93.697197   18.836990
H   57.971977   58.820923   42.162235
H   56.558987   10.855674   87.052116
H    9.064341   86.671333   31.253880
H   36.443184   56.572865   18.178759
H   64.155251   96.544617   15.834701
H   12.899967   24.884483   63.925961
H   93.799622    5.571892   95.142242
H   22.640942   82.434334   24.602463
H   15.884633   47.646576   85.785919
H    2.909191   63.481823   81.494621
H   61.310947   51.307594   17.183342
H   13.082004   33.100262   38.673618
H   99.650261    8.175886   85.320099
H   51.139156   55.259865   46.405216
H   79.033417   46.057987   87.297928
H   11.608634   44.324932   52.604080
H   46.024300   38.487331   51.268875
H   72.130783   61.662945   67.061539
H   76.172195   64.668839   25.049097
H   15.833805   59.502136   28.016819
H   65.487930   79.999725   77.539307
H   99.923660   53.102184   44.333977
H   79.255310   24.023724   59.139919
H   76.200340   75.776421   72.793762
H    6.340479   54.698975   63.191460
H   20.639622   19.898832    2.592294
H   89.604370   80.499100   36.107788
H   52.115112   42.442432   99.561600
H    9.880138   30.899530   93.165245
H   86.093750   21.432127   61.052147
H   49.754742    3.089778   37.858513
H    2.473347   69.364075   88.011528
H   52.446762   72.131111    5.780323
H   14.157872   47.304775   57.180504
H   18.356192   42.887756    5.953682
H   59.607445   50.342495   82.866539
H   33.627155   98.314278   96.216415
