100
TIME:    1.352, STEP:  1352
H   25.891863   98.036118   97.908218
H   63.661903   78.049156   63.283993
H    2.994623   71.172432    7.465128
H   81.703537   76.947350   66.057121
H   83.061310   81.126289   29.046043
H    7.051157   99.743370   12.638472
H   82.111641   52.632084   96.180931
H   13.621765    5.567816   84.057945
H   20.393257   56.304123   14.983102
H   37.892494   35.796074   60.635048
H   74.495285   20.642902    9.518343
H    4.236492   91.459633   96.692696
H   57.260544   79.909416   90.751244
H   88.138756    0.908825   60.129002
H   96.945168   49.259411   85.783127
H   47.163635   93.480156   20.812973
H   15.368504   71.406906   96.452156
H   30.035934   28.953064   52.675095
H   66.318230   35.071747   34.590870
H   56.091156   77.102402    8.383036
H   84.047043   21.621292   20.549034
H   91.986320   45.884422    4.134145
H   67.692879   83.626488   93.667038
H   93.426048   52.896854    6.662378
H   81.228996   78.948677   46.537643
H   40.459705   87.323654   62.448814
H   45.494576   86.276321   26.795187
H   18.464012   19.546490   11.461974
H   40.568985   71.756042   93.263206
H   52.834698   57.377975   90.869072
H   69.285591   43.285278    2.426898
H   51.123234   15.159450   74.102669
H   65.591995   69.563560   19.595793
H   35.227013   49.819954   14.793884
H   47.165749   56.719337    7.056869
H   90.105621   90.690262   15.992288
H    9.473752   55.023293   14.997466
H    8.111650   34.208706   17.848873
H   89.939316   51.646782   12.543626
H   35.850311   85.613594   44.406925
H   42.846497    2.573666   74.197067
H   10.111137   72.537575   66.319351
H   22.886404   71.607483   99.130226
H   93.025459   35.429466   12.925773
H   39.379539   78.546890   71.804398
H   60.644833   88.704109   88.661354
H   50.355946   98.672409   39.175972
H   56.311619    9.303514   52.232021
H    4.552619   20.476959   90.542038
H   54.245556   51.327702   89.104454
H   43.441471   39.116997   67.672134
H   70.837669   38.283466   85.305527
H   36.925140   29.848083   24.347198
H   45.382229   85.146523   91.477249
H   33.127304   77.028976   11.878786
H   95.257889   11.111059   46.601532
H   81.962372   50.535683   84.573830
H   25.385098   49.208153   78.730789
H   96.907051   95.893250    7.689171
H   69.799561   31.707182   25.155479
H   44.986217   15.698329    8.983883
H   50.926025   15.360998   34.181160
H   65.939438   14.957062   40.805763
H   35.878525   49.149033   90.432869
H   85.985588   52.862759   21.469973
H   18.289619   75.061165   26.126143
H   79.094894   95.105621   32.337719
H   86.973778   94.858871   30.836020
H   24.285294   52.640228   75.438118
H   57.773155   16.144407   98.886200
H   79.099861    3.410330   45.932316
H   62.487461    6.654987   55.609619
H   18.838875   51.429684   27.081226
H    0.433647   63.823891   22.855217
H   27.357628   30.567434    3.888266
H   57.623638   94.222923    4.957778
H   89.707787    9.364351   14.957180
H   95.499741   62.318169   89.105606
H   26.357393   49.541843   32.764000
H   33.220993   35.321060    4.445224
H   37.339565   43.268719   60.794399
H   42.765102   53.057144   73.723953
H    3.343037   29.822275   58.671177
H   43.175922   27.853983   39.939735
H   86.497894   64.317261   16.691078
H   20.173901   58.717876   35.670357
H   57.451744    5.051521   88.011597
H   77.719696   97.050385   81.688850
H   83.739937   18.895056   17.138329
H   46.803665   53.651871   72.546883
H   79.351936   46.435238   62.013500
H   78.321266   97.189812   59.281609
H   72.030998   68.139755   23.509485
H   77.904060   95.241173   17.977478
H   33.217991   28.625648   47.153557
H    5.591265   42.341545   97.616180
H   55.286819   45.268871   59.434387
H   11.829230   27.749146   34.404633
H   44.305779   42.678234   31.800365
H   23.205185   43.976284   67.468941
