100
TIME:    0.651, STEP:   651
H   73.298012   62.321297   98.550003
H   83.161461   40.041439   19.065031
H   90.949524   20.739456   15.696060
H   81.585876    5.828196    4.479055
H   89.340103   24.938042   48.053566
H   17.921444    0.505116   43.216442
H   18.851997    5.295383   41.361820
H   68.718979   44.921253   48.421944
H   37.625175   23.702515   59.110146
H   57.049767   25.732418   33.182709
H   39.700592   92.437073   77.041359
H   30.993565   56.321922   46.589821
H    1.852925   22.321167   60.424004
H   22.847996    3.070085    6.780652
H   88.420128   11.874244   19.478979
H   75.348679   54.796749   79.001450
H   71.727119   25.048660   32.626671
H   15.055696   63.042526   76.977341
H   55.401405    5.662021   97.661057
H   75.027412   91.882904   60.600563
H   25.645279   91.407928   39.574211
H   24.770069   44.959183   63.825245
H   77.052238   89.327675   13.723728
H   58.556580   44.489475   58.726936
H    6.300922   34.545315   41.365929
H   43.673977    8.212359   28.155329
H    5.941916   15.415324   12.884504
H   77.611046   86.825668   88.292404
H   25.326599    8.156022   26.398708
H   25.955217   74.727554   35.140774
H   41.710239   80.421196   57.897118
H    6.861746   34.525360   38.997734
H   16.213039   20.851862   56.444176
H    5.608182   14.062327   44.325172
H   64.590202    9.709603   64.368362
H   29.157345   35.625134   18.404333
H   42.238293   80.694679   59.761547
H   37.083244   47.039051   68.379570
H   21.453316   66.611061   79.731812
H    1.876892   51.239277   89.253471
H   90.753357   78.517784   57.679760
H   73.112999   41.075531   33.385105
H   16.848280   67.403793   48.495056
H   37.788147   23.681353   44.383675
H    0.186457    6.206948   11.815168
H   69.637123   75.442192   85.871193
H   42.954029   60.860149   33.185982
H   56.274181    2.086022    8.858077
H   84.059380   78.533066   18.504946
H   39.543339   40.658031   38.132721
H   43.494953    6.793444   60.280918
H   36.769600    3.330629   31.325043
H   22.383371   25.783447   65.062447
H   61.614033   96.580986   60.543232
H   88.933441   15.574594    5.930244
H   94.380783   11.847775   70.465225
H   37.521973   70.762596   17.903099
H   77.583923   15.408180   96.786331
H   41.619469   66.274887   61.506954
H   16.060051   77.826218   45.093590
H    0.765818   48.295654   63.637367
H   75.805878   21.885941   65.901047
H   18.389530   62.760277   88.896828
H   87.742378   45.335762    9.464445
H   58.163101    8.849380   56.188255
H   61.353371    9.909931   84.678062
H   35.338127   70.867554   98.491867
H   35.396873   54.768723   97.324165
H   89.347588    3.009612   19.402271
H   43.573669   80.887352    0.361809
H    1.359228   51.109371   54.339695
H   20.289415   29.920219    4.284286
H   64.545410   86.105507   45.056545
H   15.861943    8.182554   64.517738
H   93.559616   29.569994   50.748341
H   41.049549   49.296249   52.124866
H   26.061203   70.120964    2.553393
H   62.565491    8.153053   50.393414
H   92.755928   51.595554   24.947338
H   67.599258   73.500572   64.836945
H   23.621418   36.016552   18.897392
H   90.168114   48.479080   32.342140
H   58.985874   18.123075   91.904480
H   94.952057   67.868507    3.968452
H   20.631250    8.162631   84.645378
H   36.309437   32.966267   86.990578
H   10.633551   56.019920   54.585308
H   66.434982   53.173302   88.973106
H   69.192818   57.925362   22.874279
H    8.779034   82.498169   47.485195
H   50.664158    8.584333   47.209667
H   26.454363   44.467201   45.927139
H   27.052883   47.136299   69.277916
H   10.148861   52.721519   70.711159
H   45.337025   91.416595   31.044922
H   47.691528   70.023857   33.824089
H   10.929289    5.040034   99.749161
H    9.255406   21.780548   45.619820
H   77.699974   39.656498   90.520729
H   79.670761   61.983692   34.985703
