100
TIME:    2.682, STEP:  2682
H   35.949127   76.068291   96.690567
H   26.665596   50.159355   47.179707
H   25.855947   66.857864   91.854958
H   81.926773   22.152124   93.153259
H   71.148621   87.731644   92.985336
H   86.430183   98.302483   44.353519
H   12.407316   42.439606    0.188745
H    9.086388   20.629389   61.942646
H   87.699257   28.430130   31.264286
H    1.549852   54.892906   12.712909
H   50.781921   74.158676   81.405334
H   53.477814   58.125443    2.021843
H   72.659386   99.442474   58.559250
H   22.284111   96.809181   61.342640
H   13.123268   30.459875   21.850546
H   93.686401   77.151520   10.411863
H    8.436652   59.362839   17.541391
H   58.457947   64.274971    6.563896
H   87.038597   90.865738    4.661822
H   20.261765   48.858334   98.935707
H    5.122986   89.215546   84.448578
H   19.506302   47.644379   90.881226
H   49.935463   72.809685   55.615433
H   69.854645   68.848083    7.884423
H   33.659416   73.465637   56.349884
H   34.361301   47.693279   37.787788
H   30.806602   30.988981   53.187778
H    6.243006   81.626411   55.426113
H   69.488205   92.424263   30.391939
H    3.833758   24.460800   96.600334
H   21.608091   62.554691   97.187645
H   35.100197   78.410088   50.977882
H   59.275089   72.254494   39.412697
H   91.421623   27.933365   58.762436
H   14.103913   56.181519   88.043846
H    5.743536   95.169487   11.420388
H   37.037827    6.314562   19.796263
H   53.137833    9.865826   11.703455
H   31.864731   22.980097   84.406723
H   10.579367   61.104263   49.048878
H   51.954952   48.208271    5.532472
H   90.578270   32.227753   28.803347
H   34.342472   79.583099   95.197533
H    8.095705   57.722633   42.965591
H   24.012316   26.073452   85.616676
H   43.486095   14.071827   94.059608
H   62.686512   70.693878   51.203941
H   56.382648   22.997019   34.524864
H   43.426254   10.326870   37.487953
H   82.133324   71.567360   96.082794
H   43.340000   10.713568   81.695419
H   35.472157   14.869255   97.992577
H   64.514900   37.559875   47.103668
H   14.585796   63.451775   50.165314
H   27.246170   93.623352   23.163282
H   96.922012    9.713297    1.325195
H   66.277504   12.159116   11.068024
H   26.349213   23.605907   44.474197
H    1.801393   52.090069    5.584223
H   82.034225   33.935581   87.328133
H   28.883669   53.845242    5.286729
H    3.724781    2.979006   74.003632
H   56.152050   24.261171   49.562668
H   27.207106   56.383911   54.326786
H   38.775295   46.637501   45.330864
H   36.585609    8.942696    4.765968
H   72.386543   41.086048   96.548538
H   95.101540   70.923523   94.417709
H   90.572197   57.074913   92.021675
H   84.721497   83.040108   96.085602
H   36.867653   12.916169   29.977219
H   52.823364   62.514740   52.985947
H   32.120789   85.643852   92.978996
H   71.169304   79.657761   43.809319
H   91.481834   32.461102    4.711349
H   89.061394   79.464348   15.465359
H   10.462816   94.088760   38.482365
H   57.985561   75.352074   62.558468
H   90.124786   45.640850   47.603592
H   67.995003   62.888210   89.864578
H   63.366863   57.028179   40.285175
H   42.557709   61.743057   62.510353
H   87.490555   52.023621   85.347198
H   34.667942   41.663788   18.458710
H   21.738331   81.124023   87.762688
H   89.563904    7.567913   28.029568
H   46.279442    8.349686   51.431458
H   99.130066   90.567139   67.852974
H   11.341465   44.842339    6.257638
H   29.213383   98.928787   20.093334
H   33.781128   18.252495   90.100662
H   76.731918   97.209282   84.627159
H   57.366184    7.996069   26.402351
H    6.452669   75.916710    7.652552
H   10.219868    9.491753   77.716606
H   15.443831   89.822517   28.920349
H   49.717606   21.594814   82.945152
H   16.712149   39.073303   13.122017
H   80.949242   48.411343   20.392052
H    5.802567    9.813852   39.371002
