100
TIME:    3.112, STEP:  3112
H    6.870715   36.635002   96.296890
H   14.704294   73.473526   74.304031
H   33.247231   97.794296   86.809334
H   81.998947    4.435030   69.585144
H   67.297150   22.198025   81.325943
H   79.763924   97.836632   86.937737
H   89.870537   71.475700   33.815392
H   75.289230   57.828564   22.460148
H   77.129036   87.087204    4.197010
H   89.798820   61.067070   29.552431
H   10.784363   91.460770   39.985882
H   37.064774   79.679245   71.413567
H   45.307655   73.427002   15.821739
H    0.993334   95.483803   94.064003
H   18.354248   92.051193    1.180399
H   76.397430   39.542267   74.718117
H   73.858589   87.805450   56.685986
H   67.645714   43.364174   91.655945
H   93.737663    8.904140   27.314699
H    8.677826   39.728313   28.212030
H   79.606232   46.408409   72.776062
H   60.730820   48.215210   54.262726
H   44.194344   69.312523   43.313034
H   29.903015   74.005249   75.949989
H   18.281242   39.362480   59.522621
H   32.389637   34.882381   97.483894
H   93.727432   13.114284   61.720722
H   69.959557    1.697350   69.639824
H   78.838028   31.436625   10.066736
H   20.321217   13.818236   30.783199
H   38.531902    1.115137   63.167412
H   62.250771   66.527611   11.170601
H   89.562469   40.793159   78.150490
H    9.590247   88.526588   40.646744
H    3.414605   23.676941   14.228142
H   43.130856   28.948431    9.942460
H   78.279884   90.566879   53.678707
H   35.366608    1.995884   42.046207
H   13.713056   13.612230   42.736038
H   70.077042   20.847990   82.880287
H   22.568441   62.961308   15.663096
H   51.932335   51.527756   49.005264
H   38.046314   82.161682   26.256969
H   80.637115   64.929779   85.008629
H   86.712502    9.108931   22.413324
H   37.938534   22.273426   95.804909
H   66.047165   94.078278   55.334267
H   56.405613   27.424242   61.130852
H   55.994385   74.713127   20.334604
H   91.148521   78.108955   66.005890
H   43.307194   69.199951   86.229263
H   56.369831   74.969421   69.765953
H   73.431679   40.053162   22.128807
H    4.629055   56.434486   69.140533
H   93.010818   31.311867   26.816721
H   97.460037    9.261343   86.686981
H   93.539619   99.750999   51.964577
H   94.330559   82.997437   33.398758
H   35.713379   70.258255   72.574150
H   53.657890   66.987732   75.097908
H   56.008186   33.849743   71.758987
H   88.463646   98.976028   54.547844
H   85.334282   94.925468   20.071304
H   56.735878   58.723007   42.650990
H   55.844463   12.293338   85.375877
H   10.170080   87.566170   30.189648
H   37.887337   55.950626   17.309671
H   65.398628   95.515198   14.974196
H   12.002831   26.177849   65.054817
H   93.434875    4.666533   95.180145
H   23.212574   83.659035   24.818413
H   17.368814   48.243958   84.468109
H    4.082865   64.372185   81.956047
H   61.707142   52.446739   18.253136
H   12.214187   33.074581   37.309116
H   99.224815    7.022239   86.531342
H   49.504803   56.820061   46.086887
H   78.187744   47.235035   86.303940
H   10.745486   44.377804   52.403168
H   46.907051   39.467724   52.819595
H   71.778671   61.476727   65.985703
H   74.821701   64.551285   26.554293
H   14.694969   59.201660   26.302402
H   64.249496   78.459442   79.183411
H    0.800134   54.228146   46.078880
H   79.669495   23.362553   57.889950
H   74.998161   77.085167   71.935455
H    6.050783   56.140106   63.378639
H   20.266018   20.900991    2.739562
H   91.195740   81.239578   35.464401
H   51.378479   41.470554   99.181473
H    8.548218   29.545877   92.822197
H   84.939911   20.892012   59.660179
H   48.014919    1.997934   36.644936
H    2.784586   70.976318   87.597893
H   50.960037   72.841927    6.710075
H   15.586610   46.271786   58.215691
H   18.290136   42.734497    6.241695
H   60.464928   50.264904   84.374138
H   32.509159   98.776253   97.950333
