100
TIME:    8.576, STEP:  8576
H   37.361809   35.560875   91.294449
H   63.628128   69.586227   18.848839
H   27.184481   90.896133   22.670883
H   82.916061   79.318840   70.084175
H   18.350786   60.161472   33.173737
H   95.026367   91.917076   28.055672
H    3.502727   40.430954   61.107533
H   45.829605   30.534914   20.773560
H   42.813423   61.745239   60.259815
H   40.519020   39.523655   43.505806
H    2.536400   11.316466   13.666136
H   28.519104   53.561108   82.480263
H   96.886490   42.892540   72.847305
H   30.448538   78.642250    9.876781
H   84.770088    3.982224   38.480644
H   56.701080   61.640648   21.157978
H   34.476204   49.205708   54.095467
H   84.455063   77.530876    2.240960
H   78.838562   38.127560   15.179492
H   61.460606   23.693205    0.226598
H   55.364723    2.448696   24.477240
H   84.569817   55.468750   88.952682
H   71.240242   24.877512   86.980331
H   22.223501   39.422089   70.146622
H   22.857246    6.039818   99.875648
H    7.170456   73.283005   83.842560
H   22.560514   85.982986   70.131271
H    8.924135   56.738392   50.250633
H   97.647331   27.173601   51.779564
H   29.834312   78.583298   65.155975
H   53.576511   91.082375   30.873253
H    7.251219   15.567455    5.340779
H   74.439468   41.021004   70.390762
H   40.459000   87.783539   10.458525
H   67.522743   10.346428   46.823956
H   18.134539   57.140869   92.464851
H    2.349396   90.462654   84.220665
H    9.531054    2.005233   27.625824
H   83.076530   94.562096   13.234344
H   55.429451    9.326564   12.776010
H   49.142380   50.444176   44.391323
H   77.475281   75.233948   17.781227
H   85.092255   14.932663   20.927029
H   31.737507   56.594086   19.250751
H   12.751671   93.531548   89.982353
H   67.423241   26.485977   18.002249
H    8.740323   91.229683    7.788038
H   56.711056   83.700012   99.211861
H   15.716614   22.186111    2.372754
H    5.794069   61.265644   83.898918
H   42.912724   41.686348   43.832031
H   21.922560   67.950623   11.075130
H   86.759315   71.735291    4.791342
H   78.089905   67.283127   10.251826
H   57.961128   10.164140   73.287079
H    4.277157    3.512604    0.679510
H   39.932663   42.089729   71.636391
H   87.469421   66.989845   92.656151
H   66.647331    1.134391   53.107010
H   93.091805   86.967850   19.688744
H    0.680792   79.746948   45.743038
H   94.538902   48.117874    7.317108
H   56.286243   22.072229   45.388397
H   31.937973   88.480133   94.299484
H   72.720688   75.893707   94.214096
H   74.511726   15.934810   53.264408
H   99.499466   44.856091   81.111069
H   87.962662    8.007565   76.184998
H   84.328796   33.569664   22.360535
H    4.198933   79.394058   83.654053
H   49.702885   11.888923   59.279060
H   67.053558   66.843163   84.663132
H   47.820206   94.107536   41.861996
H   41.416576    6.645299   93.597328
H   75.585876   40.942921   51.539692
H   28.398905   57.215126   18.873705
H   45.666824   83.525879   42.839371
H   34.892841   89.961418   88.066345
H   72.762459   28.328304   13.364397
H   78.950462   41.844475   82.091209
H   78.704720   18.005014   92.558746
H   84.832199    0.087199   69.534981
H   60.326576   50.539219   46.678478
H   40.164314   46.026344   80.131950
H   34.750870   12.441080   16.406460
H   53.917233   24.063843   37.326782
H   39.926502   79.807091   32.480049
H   93.954704   18.813763    6.658125
H   33.662357   16.674505   58.050179
H    8.104800   56.438065   30.788820
H   74.987938   36.509640   14.571555
H   12.836054   40.476227   96.936424
H   35.191532   84.839226   82.199829
H   76.102219   33.468861    5.065191
H    8.316101   81.543930   13.154085
H    2.264017   57.074890   24.487587
H   81.879967   59.837761   43.975273
H   21.723650   10.801129    6.716944
H    0.172352   73.835442   26.707455
H   71.898666   58.557331   71.587479
