100
TIME:    4.695, STEP:  4695
H   99.819252   91.465981   94.847610
H   70.810951   59.280449   74.141418
H   60.457458   11.681266   68.234398
H   82.264648   39.217033   82.814461
H   53.118362   49.082458   38.403107
H   55.218464   96.121651   43.707935
H    6.906066   78.366974   57.608120
H   50.868553   94.779602   77.115013
H   38.215874   34.888367    4.552759
H   46.537819   83.796608   91.540009
H   63.537567   55.156010   87.503235
H   76.646584   59.026711   58.733696
H   44.469406   77.674065   58.503174
H   22.612213   90.604561   14.531123
H   37.609795   50.650909   25.087460
H   12.748066    1.087071   43.315369
H   46.563210   92.508972    0.792719
H    1.467490   66.373390   36.772900
H   18.394604   75.315323   10.713999
H   66.023155    6.112448   35.990028
H   85.668770   88.815033   29.814220
H   12.494568   50.316666   19.455627
H   23.059013   56.438087   98.019836
H   82.825104   92.990814   58.382416
H   61.663849   13.822075   71.213478
H   25.143862   87.860001   48.921322
H   57.224564   47.312260   93.122658
H   36.391476   75.586441   21.962969
H   13.259501   75.059196   35.236275
H   81.020721   74.638329   56.627480
H    0.831832   43.065105   37.925484
H   62.202374   22.794899   64.624382
H    1.066101   24.973490   20.759634
H   76.476242   43.453949   73.958473
H   64.066315    4.014032   10.621849
H   80.766144   53.161350    4.666826
H   30.110926   32.595688   78.413010
H   69.937431   73.033684   53.753666
H   46.896168   79.121758   89.332169
H   20.977259   72.653725    7.426756
H   14.381844   17.281256   52.957867
H    9.660898   22.571596   23.375589
H   51.681622   91.654465   40.598549
H   79.551666   91.451599   39.787575
H   49.398754   46.649689   57.874531
H   17.515766   52.466755    2.233540
H   78.414352   80.167625   70.534431
H   56.490154   43.726944   59.077919
H    2.272099   43.609333   57.190346
H   24.345875    2.192251   55.288773
H   43.186420   16.371536    2.919611
H   33.299919   28.078093   65.845245
H    6.259784   49.231934   30.190355
H   67.963799   30.601074   38.993065
H   66.972076   70.047859   40.280621
H   99.440720    7.595038   32.797928
H   93.895020   54.074532    2.520939
H   76.456192   33.503181   92.622055
H   60.560249   37.144852   51.045975
H   49.196430   88.661118   30.073616
H   55.865021   60.231113   48.336075
H   32.279900   84.241684   82.920609
H   92.803795   86.904465   11.520226
H   65.438087   67.338821   99.667862
H   18.674284   85.862366   32.794407
H   12.924175    8.870537   23.788366
H   10.879656   10.681766   93.736191
H   56.050026   86.048904   90.650749
H   90.899765   12.433563   65.771820
H   25.507376   84.287598   91.846802
H   72.944893   75.952042    5.826982
H   86.842865   95.706863    0.367232
H    0.868042   86.072639   41.369476
H   26.853222   52.271420   24.192314
H   88.536140   35.333042   57.311001
H   36.651169    8.477758   80.015091
H   93.230362   19.614601   74.082146
H   52.559963   43.726200   73.728050
H   86.655327   39.728031   70.068153
H   69.273499   53.254910   16.442650
H    2.745864   77.853592   60.597958
H   93.596306   74.889481   94.184105
H   14.843172   85.636292   77.072342
H   73.157547   13.920183   34.601135
H   23.721914   55.210953   92.624901
H   43.237377   81.510368   67.818237
H   80.723152   61.988174   47.419296
H   31.527914   29.401117   46.917236
H   53.118515   32.761543   89.791756
H   51.238049   16.109726   92.052689
H   16.161461   26.948711   32.611614
H   25.681196   48.588097   22.987783
H   86.412193   68.393272   82.076096
H    1.016681   98.018707   43.378086
H   75.416862   29.180099   23.972160
H   81.709320   10.331478   24.946297
H   89.935600   37.116940   67.175171
H   24.099333   56.212799   80.905663
H   85.054230   57.088596   51.782249
H   30.835505   58.149853   45.456356
