100
TIME:    5.838, STEP:  5838
H   22.522181   86.647881   93.801163
H   39.243111   21.215940   46.210529
H   80.111664   93.913544   54.816456
H   82.456497   92.123932   20.161842
H   42.880615   40.698868    7.413668
H   37.489895   94.883354   56.903713
H   47.000042   55.548428   46.992283
H   61.031006   93.663559   72.168755
H   10.118752   24.993607   32.605255
H   15.304773    0.208413   36.299046
H   57.218491    1.147351   77.403313
H   33.020958   16.319126   77.374016
H   71.532028    8.554710   44.928642
H   66.017982   87.081520    1.513469
H   51.510109   48.553604   70.146454
H   66.790497    1.116087   48.436249
H   54.649910   68.107887    4.844518
H   25.909704   10.761375   97.150917
H   36.196270   23.264124   70.929352
H   35.230858   81.835976   13.810755
H   17.841515   75.026428   98.791252
H   22.075089   51.834015   22.118622
H    7.797160   47.142143   65.318344
H   76.624138    6.667696   73.493393
H   20.783821   23.176994   79.654823
H   19.933424   54.074615   41.438263
H   58.662491   99.797195   15.800631
H   39.948261   28.937798   59.748451
H   38.112877   78.761139   81.207123
H   24.847717   46.349358   47.492569
H   45.818047   45.560032   47.494957
H   34.372013   91.215088   58.811150
H   81.578362   41.346077   23.730101
H   24.771328   38.704796   25.804998
H   35.655258   17.611502   80.221375
H   80.125122   42.686226    1.071767
H   39.739182   90.734497   68.476906
H   22.697941   52.117214   34.412846
H   98.647034   54.216301   78.566872
H   13.319445   65.650200   97.355797
H   36.265213   56.496887   79.886452
H    8.219165   64.496857   77.998894
H   61.526951   98.508698   23.159264
H    6.568537   10.633566   51.544144
H   50.251980    1.555839   55.683941
H    2.766949   74.267746    6.878706
H   87.344040   42.328751   81.504692
H   56.551197   55.499481   29.800253
H   35.680130   48.946030   11.593127
H   48.318249   19.589445   75.346115
H   43.100727    6.021986   14.969022
H   88.848854   22.016338   90.807594
H   29.969730   55.859436   63.808651
H   41.496086   11.948617   89.431847
H   75.964561   70.220139   50.003864
H    0.866969    6.392714   93.887497
H   66.354301   21.093987   11.229893
H   91.346344   25.560781   63.181992
H   50.706673   85.438591   63.297966
H   73.770218   76.516678   97.563988
H   27.966480    7.078609   59.218418
H   91.715889   73.602798   31.203117
H   70.403313    8.908133   33.141266
H   43.924881   73.565186   68.640686
H   64.045227   94.572556   39.236897
H   42.708305   52.048759   91.371452
H   19.174896   50.195950   48.921280
H   77.095100   51.419041   45.292759
H   47.868237   30.304878   94.082825
H   48.661255   41.776833   89.439972
H   36.650597   98.183090   92.117012
H   92.597549   57.773132   84.053177
H   26.343143   29.534897   12.060219
H    1.694664   79.931480   56.279198
H   43.644207   36.963757   43.958389
H   63.675682   81.734306    3.106754
H   97.007195   20.546675   94.296028
H    6.260188   68.989067   36.850929
H   41.465672   36.370678   82.817375
H   13.224134   90.995766   17.972118
H   25.112650   89.678452   28.912188
H   79.369675   82.331085   98.591850
H   87.141197    4.751012   85.925156
H   51.794128   11.729195   30.205982
H   68.066978   83.714851   81.823822
H   16.927937   23.492805   47.191711
H   57.061546   78.882622    1.921810
H   49.920097   37.910900   35.046783
H   76.837997   69.121758   80.443489
H   50.181515   69.086349   32.912216
H   62.937675   88.666809   56.749676
H   10.251780   34.552292   44.762703
H   59.680511    2.687000   70.466080
H   11.488115   67.357857   20.446291
H   55.656441   26.797054   50.236668
H   76.116440   65.195343   65.908615
H   99.209740    2.711680    1.440328
H   27.008638   75.321732   61.681450
H   30.604065   62.015621   56.044296
H    1.832736   28.822681   35.347691
