100
TIME:    1.813, STEP:  1813
H   94.716949   55.759964   97.486160
H   50.838371    3.042297   92.363792
H   10.918684    4.338957    2.052777
H   81.780914   57.954735   40.786678
H   78.932175   18.077457   16.546951
H   99.902229   99.243935   58.293926
H   57.949696   83.760155   32.231819
H   77.388069   45.448994   41.730698
H    9.060997   11.980907   85.965248
H   25.294996   42.415352   78.685722
H   31.614182   39.192356   65.111191
H   86.642899   14.566769   63.877678
H   27.937813   52.018410   44.931267
H   65.312447   99.487679   95.209450
H    2.552193    8.082933   63.625015
H   28.628250   53.158592   82.546646
H   78.304977    1.893578   38.423912
H   39.887474    6.534401   36.693161
H   73.500252   54.412560   58.876797
H   43.672096   67.310654   39.770088
H   56.690643   75.727905    8.036770
H   36.190189   46.492889   64.882423
H   61.537865   79.877205   80.477722
H   50.594185   58.425816   72.425858
H   64.740593   42.386459   49.938728
H   38.345898   73.585663   19.240095
H    5.741383   67.114883   35.943295
H   79.565903   41.064419   26.700029
H   50.592865   13.581697   71.470940
H   70.511894   45.968338   27.516537
H   87.420021   84.625870   65.947113
H   80.231171    2.423160   31.425560
H   98.062332   35.834084   61.126312
H   54.704994    7.572113   95.372986
H   35.706871   21.871407   35.127251
H   30.188377   26.904226   14.407178
H   53.688751   38.140968   51.322575
H   89.056862   25.771061   50.379002
H   69.216263   41.805794   68.360367
H   92.429192   42.456394   80.677689
H   11.343376   18.391901   85.058029
H   68.679077   93.225456   87.977966
H   26.857267   74.371964   32.428558
H   63.586906   43.156647   57.998806
H   99.391609   60.356892   11.253267
H   54.697330   97.496986   90.532478
H   55.223682   23.541567   43.115181
H   56.336239   14.049910   80.756111
H   18.026937   82.296593   72.154373
H   63.914204   58.344418   56.859997
H   43.406300   94.609718   72.532837
H   93.241920   95.505966   55.042919
H   46.488274   32.521118   97.573021
H   34.707676   77.626854   11.819464
H   96.426529   17.441877   15.790737
H   95.834702   10.626572   30.908005
H   11.188883   37.233818   28.418936
H   91.057465    5.671865   66.856888
H   33.264168   15.371966   72.299210
H   39.379055   67.142166   12.043807
H   74.066025   94.259712   73.039268
H   34.564240   11.069195   13.321052
H   97.206909   83.520042    9.179353
H   67.536011   51.656761   77.918846
H    4.282270   16.042469   64.403366
H   89.969917   52.143410   53.384060
H   42.108536   11.043733   54.594250
H   55.129494   21.224747   52.874485
H   47.262840   19.515701   46.525009
H   67.112366   39.331779   97.915466
H   64.461479   72.044182   40.403355
H   24.477262   91.354996   89.361076
H   88.780289   28.627995   15.260082
H   90.290062   34.649124   95.456581
H   49.582870   31.223383   38.836040
H   68.521828   23.768518   73.936882
H   31.563272   69.409164   23.112238
H   17.158367   32.172668   14.564353
H   48.455650   48.191257   37.906075
H   10.612537   10.213648   64.729622
H   46.361057   48.037975   88.347755
H   77.354919   56.067825   35.175980
H   32.511265   37.517303    2.579245
H   74.888863   67.302345   97.832397
H   64.051437   35.480179   72.002457
H    9.562656   75.650536   67.683464
H   88.240883   71.533051    9.994066
H   85.140884   60.141403   76.896217
H   93.306587   93.227669   13.366798
H    6.044424   34.683876   89.028252
H   98.217934   71.327148   71.748978
H   12.430834   31.860277   68.065559
H    1.610148   81.955124   59.173813
H   22.460842   23.204081   49.059334
H   25.246635   87.331940   57.747215
H   43.667969   24.137533   73.805069
H   18.695023   71.724876   32.922104
H   13.521859   31.674286   27.027981
H   22.345463   44.665424   93.184860
H   51.834793   32.134037   23.068073
