100
TIME:    0.130, STEP:   130
H    8.531304   10.099641   99.026993
H   97.653999   11.793144   86.200897
H   81.998016   83.256706   21.813454
H   81.498428   27.294722   33.037239
H   94.006653   83.177597   62.180412
H   26.000458    1.072162   91.619652
H   46.156643   70.116875    0.618659
H    9.668554   99.849396   96.257362
H   50.432350   73.794388   91.903786
H   71.287910   18.253616   12.779474
H   88.162750   71.473373   27.227539
H   50.880062   30.206734   83.675774
H   34.993263   53.842239   12.208272
H   48.645191    4.676447   67.134193
H   82.084114   58.409340   44.523922
H   96.296112    0.366426   22.248623
H   13.614370   90.594215   85.191063
H    3.922774   88.378632   95.039352
H   47.288605   83.807037   70.210297
H   89.130409    2.806482   25.056879
H   56.562164   43.275871   53.712982
H   74.813026   44.271523    8.185953
H   84.008339   93.564934   28.631493
H    6.963158   38.240910   97.419296
H   24.933321   75.863411   37.518265
H   46.059284   23.739502   76.986137
H   50.869221   37.073139    2.546013
H   21.571739   62.507137   71.073074
H   13.997916   60.886532   51.026825
H    5.978786   87.622177   93.723625
H   21.215578   33.700050   99.124931
H   73.965668   48.918526   87.229347
H   79.515320   58.970711    9.508382
H   83.594856   61.808960   66.274651
H   77.540474   49.093216   32.644524
H   83.857964   94.697868   20.197020
H   92.268196   99.773903   18.708427
H   58.615356   56.574871   31.615107
H   44.876591   77.732872   29.666794
H   50.948421    0.012522   48.262627
H   26.357700   60.639362   45.401249
H   19.937515   17.691111    8.907870
H   12.361407   64.279510   10.863558
H   71.058182   14.950452   93.442398
H   45.378639   26.762745   67.231995
H   76.291130   65.648003   83.828087
H   37.452747   32.753529   28.734076
H   56.246357   96.720596   76.621613
H   68.827507   21.682812   39.288483
H   28.616301   32.728077   74.571915
H   43.531261   57.093925   54.793514
H   11.451005   51.676384   65.529007
H   11.575985   22.762512   95.319496
H   73.674713    5.081149   37.552326
H   30.410255   69.902069    1.509286
H   93.728897   12.395649   88.201294
H    4.494062   85.795723   68.351509
H   16.379618   64.609673   10.206408
H    0.530756   44.261810    1.502872
H   50.442505   37.780281   59.906151
H   67.901199   72.524155    4.260634
H   94.297180   26.735336   89.472290
H   83.051064   98.288063   24.639618
H   51.966812   42.501648   23.611166
H   37.481621   50.461826    7.667470
H   93.359383   35.810474   53.872478
H   77.138329   52.855701   73.338608
H   71.385750   24.972294   72.417351
H   63.383354   40.445351   52.080044
H   33.020271   54.683304    1.457395
H   17.904615   86.559105   60.588261
H   63.246861   47.211098   66.140755
H   98.515030   11.877018   58.416233
H   27.329559   41.153271   95.482323
H   68.438156   28.828672   11.252664
H   28.731291   15.903952   87.182266
H   78.758545   15.276604   93.332458
H   38.087967   42.219959   21.619328
H   67.785515   53.119473   19.138000
H   93.150009    1.873657    9.721539
H   13.426014   30.626062   87.758636
H   51.078007   45.076553   75.910095
H   26.021549    9.427199   42.281647
H   59.113686   23.285862   51.556129
H   46.000717   40.753342   35.150139
H   48.305393   13.825297   50.812099
H   75.837120   93.900856   29.742092
H   58.047913   94.886055   94.386940
H   58.381050   86.934288   27.137375
H   54.841347    3.938169   28.859079
H   29.342714   80.450623   36.207104
H   87.905312    5.283849   36.001778
H   93.625435   31.526751   28.972132
H   59.793648   21.117659   35.584080
H   54.344181   38.085262   19.074467
H    4.659065   90.598015   60.734261
H   52.283409   75.140862   29.712502
H    7.342649   17.344543   53.955215
H    2.519238   37.410671   34.162266
H   47.314953   75.363853   85.165024
