100
TIME:    4.645, STEP:  4645
H    3.200446   96.051247   94.893387
H   72.191872   56.570869   70.988953
H   59.598007    8.084197   68.821098
H   82.256256   41.276970   85.554939
H   53.566208   45.074738   39.758850
H   55.993992   96.175819   38.756077
H    9.526497   74.990967   53.698055
H   54.798454   90.453735   81.705620
H   39.444969   39.695648    7.700171
H   47.904243   83.078682   89.582306
H   68.188446   53.144138   92.319672
H   78.554695   56.520454   62.292809
H   47.660019   80.697594   63.471436
H   25.087761   90.758675   10.725963
H   37.001732   55.117157   27.490910
H   14.758602    5.460333   47.465759
H   50.583900   89.201630   96.241020
H    0.398298   68.806404   38.506298
H   17.615833   73.218002    8.079950
H   67.370506    7.174269   32.585793
H   88.635841   93.792450   31.171299
H    7.701019   50.250290   23.713593
H   23.726585   56.844734   99.450348
H   87.470642   92.391144   62.096024
H   63.452179   17.787453   70.844215
H   25.371790   89.337814   53.622936
H   61.536316   49.390888   92.130836
H   40.610149   73.252609   20.310061
H   12.172217   70.522758   37.599861
H   79.103455   75.875816   52.652565
H   98.864098   38.581692   41.881325
H   59.045330   24.176201   69.253136
H   97.544289   28.631594   16.255239
H   74.363663   48.036163   76.064949
H   65.309143    7.793730    7.577339
H   76.419678   49.245182    4.824135
H   25.315279   34.426743   74.473190
H   72.004234   73.948448   50.225452
H   49.006840   80.211235   94.177597
H   25.686693   77.334358    3.492849
H   17.798859   15.565785   51.779888
H   14.154707   20.327600   21.026880
H   51.250942   91.354630   36.987175
H   82.744568   90.613892   34.898659
H   53.735683   48.622269   53.595966
H   18.160831   51.513081    2.030288
H   78.023727   77.448509   70.054543
H   56.487484   43.211960   55.984200
H    0.810650   47.750187   59.185051
H   23.297215    1.431219   58.785706
H   43.190235   21.198845    2.392515
H   30.870047   32.717747   69.127411
H    5.222616   48.942017   33.094364
H   69.121941   31.417038   36.786644
H   70.953094   65.665535   39.855282
H   99.378159    7.647634   34.500046
H   90.725006   55.517250   97.765495
H   80.179337   38.225014   93.909897
H   56.616997   35.032272   54.884705
H   52.495762   84.818192   31.495735
H   52.711029   62.556171   52.234314
H   34.054497   84.707077   85.182724
H   89.409477   90.316330   14.948875
H   62.004639   67.066452    1.025417
H   16.689688   89.855591   28.138029
H   15.995579   11.356098   20.831976
H   14.891382    8.953231   91.322250
H   59.503853   83.189407   88.260460
H   88.408005   16.026245   68.907501
H   24.494383   81.772949   91.952087
H   74.532570   79.353989    6.426795
H   90.965790   97.366257   96.706627
H    4.128248   88.546089   42.651596
H   27.954144   55.435711   27.163200
H   86.125252   35.261707   53.520718
H   35.468994    5.273180   83.379654
H   88.690872   23.948288   73.197899
H   50.210873   46.995777   70.966972
H   84.257408   39.874897   69.510445
H   71.725586   55.978222   20.750206
H    1.767445   77.336319   57.609524
H   89.844933   74.562943   98.365013
H   11.680407   84.800110   72.310837
H   69.717453    9.641523   39.167709
H   26.156645   58.338623   97.471855
H   44.388271   79.673973   64.346100
H   77.383766   65.623581   45.035110
H   30.723204   33.404137   47.437180
H   52.080917   35.545509   90.200691
H   55.658901   18.166992   90.265121
H   14.115256   24.248859   31.555704
H   21.981321   44.827950   22.035063
H   83.207085   66.892570   78.209518
H   96.184158   94.986023   40.007038
H   76.281273   33.658936   22.823364
H   77.579529   12.305870   27.528847
H   93.904411   34.247524   70.050690
H   23.915846   55.787079   81.705986
H   87.436127   56.873066   55.970406
H   27.729959   59.432735   50.273174
