100
TIME:    7.618, STEP:  7618
H    2.148355   23.413849   92.171524
H   90.086563   17.671474   58.445690
H   10.717394   21.973171   33.916340
H   82.755264   18.788967   22.593769
H   26.935160   83.373634   59.149780
H    9.881852   92.954948   33.181900
H   53.709675   75.742126   86.190674
H   21.126518   47.655148    8.733726
H   66.362892   53.853775   20.560528
H   66.685097   25.768190    5.993740
H   91.647232   72.769394    5.945547
H   65.085617    5.541639   50.671242
H   57.975166    0.879078   68.050072
H   77.883568   81.595070   36.973537
H   73.134224   89.555527   84.552277
H   95.219299   45.430908    0.679984
H   11.512901   85.842346   66.884949
H   63.975346   24.146942   35.448219
H   63.913708   97.936142   64.705902
H   87.275131   44.035534   35.001442
H   12.213791   97.820679   50.476269
H   92.725418   54.196991   70.535217
H   84.030922   32.665520   14.389895
H   11.235525   27.961641   41.294952
H   57.120674   82.014725   92.800575
H   11.687832    1.524616   73.995430
H    5.169878   25.805159   51.123028
H   89.757133   12.022178   18.582457
H   76.816795   40.256275   97.065880
H   93.101700    2.293736   88.998070
H   15.871142    5.176924    6.667108
H   46.762386   42.033230   94.027672
H    6.958086   11.113447   84.086555
H   99.979805   75.578499   50.816650
H   91.364571   82.880547   88.536850
H   34.857044   82.103058   95.476143
H   10.464669   25.548277    8.733909
H   49.125465   19.538021   60.021248
H   23.513371   15.433802    6.071819
H   45.662750   99.011169   37.402817
H   14.615335   17.575781   21.821257
H   58.210411   71.477142   68.871117
H   76.847748    9.185993   51.728870
H   92.909164   40.510277   25.583340
H   95.850960   31.324970    8.002621
H   79.790001    8.217231   14.110228
H    1.251049   39.131416   98.588737
H   56.652584   73.832916   39.936199
H   87.712532    1.528195   40.589104
H   85.681396   46.684269   50.882362
H   42.978504   34.175186   33.731049
H   75.363235   56.845615   73.962494
H   66.893562   66.180481   60.428932
H    0.279807   82.909683   67.977676
H   34.238876   26.209732   65.144897
H    3.083969    4.520327   33.292099
H   79.199554   69.732216   80.522591
H   58.803635   57.461372   17.332651
H   91.088783   60.656643   26.652176
H   56.308258   13.332356   46.936546
H   40.250286   24.299721   20.437202
H   28.540230   57.034805   50.664833
H   91.246498   87.444122   11.081329
H   66.155449   83.261536   20.309620
H   34.693848   52.407948    4.999828
H   33.361511   63.559990   96.619461
H   76.361938   11.737192   34.859966
H   54.138420   53.219170   30.387054
H   36.582474    2.405437   82.445251
H   84.742378   31.276834   85.685944
H   80.126213   77.073334   70.768745
H   45.943348   98.651756   14.442933
H   10.282984   41.494755   66.426819
H   62.502926   67.275024   50.517578
H   29.437307   39.532291   78.903625
H    5.749174   95.814842   83.334358
H   58.659870   66.444283   25.847361
H   89.887817   52.599209   35.153461
H   26.824247   31.142254    2.673216
H   25.930939   94.030449   64.623695
H   59.949928    8.094064   35.300354
H   12.945565   93.874496   49.681889
H   99.729668   34.517979   55.443695
H   74.254799   64.047974   67.629723
H   81.396652   72.368370    9.273307
H   75.964401   88.876007   70.800217
H   75.943779   49.461815   86.798927
H   78.547417   95.473816   16.591125
H   13.778638   70.014244   65.885384
H   92.804993   95.849380   96.542969
H   35.782673   84.781441   94.340012
H   41.953754   68.425797   78.678642
H   73.782013   56.098385    8.116214
H   83.516182   75.348106   40.468777
H   24.881859   67.356491   91.140594
H   23.137192   94.906067   73.969246
H   57.921227    4.861198   99.070213
H   23.572817   63.396267   25.950472
H   45.809013   69.698570    6.949230
H   12.395338   83.143051   63.875172
