200
TIME:    0.676, STEP:   676
H   22.868498   61.028004   22.794907
H   31.850370   39.243263    7.597300
H    8.999515   88.221802   66.823540
H   32.539413   82.069832   33.098404
H   10.581019   94.779602   47.389870
H   75.434753   40.981270   52.644402
H    9.676085   54.994774   58.090481
H   12.659142    7.713240    9.596353
H    5.134687   80.969818   37.083202
H   95.513199   68.791588   78.874886
H   27.390512    3.907942    6.739678
H   32.580719   53.660309   33.516701
H   21.875256    1.477939   43.422173
H   83.796181   55.046444   63.275448
H   98.571793   75.300941   41.905823
H   16.591816    8.002056   44.917564
H    4.717729   28.138535   94.263344
H   26.209175    4.127027   35.758175
H   79.531921   13.917295   48.902153
H   91.443367   73.717125   20.569202
H   63.317528   98.522995    5.865557
H   80.322548   65.479713   53.772964
H   81.949028   59.371384   38.674629
H   17.843193   92.034248   90.218925
H   22.197281   30.239248   29.852703
H   18.300177   81.685898   92.556496
H    7.339142   67.545235   66.612076
H    4.516549   88.115364    1.878515
H   29.432072   43.277290   35.785339
H   73.347061   32.444256   83.543930
H   12.792259   69.664711   16.727871
H   23.997540   73.725082    4.337685
H   16.588539   18.367174   78.504745
H   81.996559   64.053596   45.911118
H   27.065084   71.785141   30.902376
H   18.819206   39.980957   84.476082
H   98.778442   65.018570   89.228127
H   11.348794   56.033527   95.564209
H   36.933807   30.788147   54.123146
H   85.901443   37.895550   46.665131
H   80.634041   84.856339   15.996177
H   35.040848   33.964233   26.902695
H   68.851517   77.766090   66.517952
H   36.309952   84.409859   34.341618
H   43.674179   89.597488   60.097862
H   34.924217    2.491663   47.429684
H   88.190399    4.851414    5.738246
H   79.501228   65.543953   31.973587
H    3.942019   12.206665   61.480679
H   46.514843   19.769079   87.267120
H   67.836472   64.977592   10.589795
H    4.471397   43.202374   72.915565
H   63.936005   81.952568   13.626612
H   15.917582   91.384567   88.159737
H   58.743942   66.688431   76.672676
H   99.716484   61.608688   92.925201
H    4.186196   18.395363   44.977650
H   72.172104   68.714981   97.433830
H   18.981127   82.899948   17.671574
H   33.019260   93.540932   58.934326
H   49.007454    6.869928   29.497829
H   97.772575   17.457735   52.408577
H   83.459000   34.238312   70.175507
H   34.690117   65.774376   13.402168
H   78.357132   82.578888   35.758533
H   21.636427   33.499992   40.700333
H   69.889015   13.965186   94.843056
H   94.899834   92.441200   95.903603
H   32.031067   11.745162   56.461281
H   42.727184   49.229183   50.959309
H   58.273895   84.133118   84.943756
H   19.886814   12.361630   41.712841
H   91.331680   33.200756   84.896118
H   22.069754   99.381126   73.265785
H   84.453995    7.929404   47.112015
H   64.334175    3.683887   60.028397
H   93.584747   46.181442   65.978401
H   10.406467   13.909262   33.058540
H   14.845333   49.118130   25.281872
H   61.705837   88.235336   73.584625
H   61.872952   22.733206   94.660675
H   45.808025   60.749195   74.378593
H    9.298667   18.448854   77.522911
H   10.456133   76.116615    8.061650
H   23.382172    3.934359   45.426224
H   36.950500   70.519379   18.706696
H   55.396248    3.692636    2.770900
H   71.705696    2.316915   27.887157
H   79.030960   73.118423   78.740967
H   21.260338    5.590205   50.068813
H   22.966240   38.656635   78.815186
H   81.018410   92.360840    7.881232
H   67.971939   11.944824   83.312317
H   40.476856   78.769554   81.076439
H   36.172447   51.028465   86.098686
H   51.216286   37.457359    8.561937
H   85.219963   99.198692   17.106560
H   94.909142   35.213394   52.721653
H   27.138451   65.410446   54.426369
H   74.785332    5.011904   27.356852
H   29.318998   92.481323   89.470436
H    6.784741   83.252853   63.459602
H   32.217270   21.235857   36.595379
H   42.826073   68.744476    7.476741
H   24.760775   21.742981   39.223141
H    4.684151    5.426439   23.477869
H   86.312019   35.510525   54.230118
H   62.182026   51.014565    1.882212
H   83.876854   34.586098   20.215412
H   18.372606   21.981363    7.671160
H   52.930946   92.277992    1.102609
H    3.500656   74.309265   95.477501
H   49.521454   85.334137   84.451759
H   61.747246    9.997726   63.710739
H   49.300514    0.124143   11.485160
H   96.245186   93.043098   98.603485
H   14.648852   14.582026   89.262863
H   38.559048   48.456852   25.263298
H   35.420235   74.082901   61.991291
H   82.288704   55.376766   65.607437
H   45.105110   24.656742   73.232872
H   99.476685   17.151508   61.013161
H   42.747871    3.433858   36.963406
H   97.653687   51.629433   98.772087
H   63.870171   98.157066   78.393120
H   63.695797   74.281189   17.113058
H   84.549171   51.225693   54.216446
H   65.891838   90.989525   38.684917
H   97.833229   36.701488   74.954262
H   88.877914   22.082809   73.929497
H   66.209023   69.618073   20.073360
H   64.964806   90.375717   19.608936
H   91.014046    3.807139    0.618612
H   79.541687   24.181561   55.073193
H   25.964817   93.486542   36.381882
H   50.745560    1.067285   77.258293
H   69.614548   87.675545   77.043526
H   94.937279   50.607594   76.309364
H   57.709534   50.430954   71.446968
H   43.684120   88.179527   83.342682
H   72.202774   50.246994   28.993958
H   37.166702   54.258278   56.410755
H   40.989647   64.785805   84.678162
H   37.734627   10.745228   85.349403
H   60.795986   55.307144   63.325565
H   61.915245   69.487228    8.964592
H   55.043144   94.868431   44.160053
H   30.747200   57.189110   66.323509
H   76.841034   46.588539   93.610138
H   23.360382   93.434898   73.680862
H   60.852524   68.714554   48.052708
H   52.140869   95.045372   34.489075
H   96.430298   15.535824   88.159409
H   21.435310   11.150541   65.178261
H   30.901585   65.393631   68.640831
H   76.445183   44.609989   67.475159
H   63.875103   73.959335   85.918381
H   52.244843   29.664444   19.938725
H   92.426811    0.091510   86.435402
H   58.791508   39.154144   94.972946
H   58.238708   66.696220   71.823326
H   23.132982   20.796833   31.766830
H   83.986992   15.560421   37.050762
H   27.278776   32.988026   52.545273
H   54.779533   36.882599   14.108553
H   19.425575   50.566479   59.918446
H   67.392113   90.514961   56.843754
H   24.013088   50.769646   66.041885
H   99.997307   26.752325   35.827408
H   46.369911    7.169473   85.493561
H   71.035645   10.818870   35.939484
H   31.100878   49.252602   58.796997
H   46.097092   58.719395   78.156204
H   65.857101   64.109337   84.354904
H   51.173340   91.756699   78.730721
H   14.368573   50.015953   23.705042
H   30.938725   66.541473    5.146255
H    5.594197    9.616661   70.455276
H   64.451424   11.243779   64.035446
H   65.560326   59.132042   92.535545
H   73.457703    0.813639   31.582081
H   28.021879   30.638271   85.533066
H   45.560024   89.707581   14.704819
H   60.975891   26.027142   93.230263
H   91.161240   69.423706   76.600571
H    8.387913   39.902786   86.136330
H   46.533752   97.056435    8.925871
H   69.474609   85.692818   40.782799
H   93.991737   63.117695   71.526382
H   57.542084   55.901577   71.211563
H   68.648254   16.599342   76.187935
H   44.078682   96.777893   19.070936
H   13.784999   27.896622   67.794411
H   27.486567   80.931610   42.100010
H   69.932388   34.780834   20.390083
H   76.392593   11.453304   23.592960
H   12.359420   97.448021   18.182844
H   16.238340   88.740868   34.670616
H    6.099151   12.831858   58.517616
H    3.460305   20.221127   91.691391
