100
TIME:    0.883, STEP:   883
H   57.608559   41.045662   98.337601
H   76.707970   52.620968   33.699551
H   94.935608   37.430141   12.972000
H   81.624817   96.269554   91.762810
H   87.262100   43.533867   41.762917
H   14.323879    0.252625   66.192894
H    6.693164   20.961561   59.504520
H   50.484238   64.991592   27.119759
H   31.922173    1.396450   44.505714
H   50.709557   29.062710   42.268219
H   18.120514    1.772101   54.693832
H   22.138157   67.950951   30.075644
H   87.094650    8.284668   37.365959
H   11.360748    2.354775   24.436596
H   91.241539   91.151550    8.326666
H   66.020676   34.503475   59.743637
H   53.074654   40.391190   53.750084
H   20.013435   51.760422   68.934372
H   59.014015   15.395305    9.883493
H   68.747383   87.018890   76.428078
H   11.878067   68.312714   33.278252
H   47.015675   45.265396   44.070057
H   73.954704   87.440834    7.085712
H   37.001282   47.271946   41.495796
H   98.003532   16.145962   43.077538
H   42.610195    1.299819    6.409933
H   85.936874    5.770982   17.488325
H   58.035172   97.654648   95.960129
H   30.371155   29.204374   15.432552
H   34.850735   68.985611   53.584377
H   50.836460    1.226043   39.538475
H   21.510168   28.116119   17.520317
H   32.554775    3.878206   77.344566
H   15.410993   92.801125   34.551125
H   58.823479   92.172005   78.496658
H   49.328613   53.849255   17.606054
H   64.489250   72.198586   78.042305
H   27.495049   42.792774   84.752251
H   11.023264   61.658546   57.496307
H   80.024315   29.519468    7.506281
H   74.897522   86.479332   63.147350
H   52.262169   51.488556   44.284885
H   18.846632   68.795029   65.251961
H   22.973623   27.569201   67.068245
H   80.061348   97.053268   31.668592
H   66.674110   79.803520   86.780983
H   45.403736   73.374634   35.168404
H   56.286572    4.474752   23.212934
H   90.842094   59.318169    9.250075
H   44.409122   44.189220   21.906952
H   43.477253   84.395363   62.727085
H   48.044624   81.803482   16.094025
H   27.196054   27.128662   51.587425
H   56.242023   92.796684   70.781021
H   70.465057   35.913174    7.898949
H   94.671066   11.603954   62.567398
H   52.229065   64.068382   39.968163
H   60.308533   93.498940   90.810745
H   59.916161   76.077255   43.695248
H    0.750796   95.657394   38.494957
H   15.400787   37.507385   45.549538
H   67.571747   19.726517   55.403381
H   34.126007   46.939842   72.980812
H    3.672788   46.597786    3.164946
H   67.371864   90.320274   77.793755
H   47.101173   98.376625   98.395714
H   16.723875   78.889282    9.693195
H   19.371117   68.036789    8.415107
H    0.909471   86.339584    4.851280
H   48.273071   92.555321   99.873779
H   93.992271   35.322567   51.557224
H    1.160270   22.220634   21.270327
H   49.418823   74.628700   39.107510
H   10.755879   93.501389   50.729286
H    4.745662   29.900103   68.335258
H   46.534840   64.166161   36.515064
H   47.125957   50.013542    6.658472
H   73.465271   92.983421   63.206585
H    3.875733   50.915867   27.534222
H   56.221573   60.865730   44.849884
H   28.161518   38.416698   32.762890
H    7.574886   49.994217   12.941755
H   73.665810   21.994993   14.001143
H   10.911562   87.721046   82.777779
H    9.334362   93.651230   62.155510
H   30.969288   41.488911    3.101359
H   26.128302   39.151634   65.647934
H   70.169724   34.598717   86.562340
H   74.007271   45.007759   20.975933
H   88.267685   72.950684   55.779507
H   60.158543   21.111647   52.109081
H   43.620014   61.916054   50.346878
H   41.938454   54.087166   87.225914
H   32.573120   66.794594   86.354591
H   41.326160   70.636566   36.376060
H   66.853760   60.862236   21.841057
H   92.514267   18.353758   86.406754
H   10.107228   23.755890   41.908089
H   66.647972   40.656559   71.085915
H   94.078720   56.024036   12.640274
