100
TIME:    5.954, STEP:  5954
H   14.677858   76.010063   93.694962
H   36.039375   27.502165   53.525135
H   82.106476    2.259077   53.454426
H   82.475967   87.344879   13.803412
H   41.841614   49.996780    4.268564
H   35.690670   94.757683   68.391685
H   40.920910   63.381649   56.063633
H   51.913635    3.699309   61.518337
H    7.267250   13.840671   25.303446
H   12.135996    1.874140   40.840916
H   46.428452    5.814753   66.229179
H   28.593254   22.133640   69.116875
H   64.129807    1.539682   33.402275
H   60.274269   86.723976   10.341427
H   52.920815   38.191910   64.570892
H   62.126495   90.970314   38.807343
H   45.321907   75.780922   15.404455
H   28.390387    5.117226   93.129433
H   38.002575   28.130793   77.041229
H   32.105888   79.372108   21.708582
H   10.957909   63.478779   95.642387
H   33.196121   51.988007   12.240143
H    6.248282   46.198723   61.999557
H   65.846489    8.055391   64.878708
H   16.635338   13.977318   80.511513
H   19.404631   50.645203   30.530457
H   48.659225   94.975662   18.102522
H   30.160854   34.352287   63.583199
H   40.635155   89.285675   75.723602
H   29.295334   43.478386   56.714371
H   50.383812   55.961552   38.317406
H   41.696354   88.009583   48.072441
H   89.748772   32.858833   34.180298
H   29.672955   28.074059   20.918417
H   32.771896    8.842564   87.285522
H   90.208923   51.771736    0.706961
H   50.864639   86.486450   77.617287
H   17.903564   49.994076   42.598301
H   93.751160   51.688713   67.325478
H    2.393565   54.790379    6.482336
H   28.337502   60.476776   82.619362
H   98.443176   64.951752   83.921379
H   62.526127   99.204315   31.538094
H   99.161667   12.580587   62.885544
H   40.190304   96.978806   65.610214
H    1.270024   76.480270    7.349974
H   88.250290   48.637100   82.618034
H   56.557392   56.694244   36.977680
H   39.070602   39.339249    6.965632
H   50.751141   21.355040   67.232346
H   43.092762   94.822876   16.191849
H   94.486366   11.252407   83.192970
H   32.376072   56.532043   57.071072
H   38.810081   10.055802   94.550743
H   66.728600   80.385361   50.990650
H    1.011459    6.270693   89.938583
H   73.708733   17.746880   22.262520
H   82.708649   14.605688   60.194199
H   59.855019   90.339775   54.392998
H   66.114883   85.432266   94.264671
H   35.283985    1.684254   50.174503
H   87.598824   72.523087   25.954124
H   78.278130    0.992380   25.186798
H   51.890854   74.197083   65.491821
H   68.649048   85.308273   50.039326
H   35.582207   46.282036   98.230278
H    9.867691   54.205929   54.521622
H   69.082222   58.053074   50.838230
H   53.650005   21.969856   86.808044
H   51.010956   47.611702   89.195709
H   32.967186   90.290573   90.725777
H   83.032364   53.923340   92.545731
H   18.779408   23.797379    9.085701
H   99.141075   72.589439   49.386742
H   49.236584   37.129253   52.751846
H   66.417549   89.168388   95.301208
H    7.539190   10.492521   96.347481
H   11.710078   61.404228   43.257515
H   47.027958   36.029949   84.111259
H    7.535522   84.676796    7.978766
H   27.382700   90.878525   35.845158
H   88.076401   83.083344   88.888603
H   94.477928    6.690843   96.971848
H   59.774261   21.655811   19.611530
H   62.418846   76.459541   70.578888
H   14.257862   27.753685   55.247070
H   64.808922   70.448479    7.453211
H   51.785698   28.628195   33.844055
H   79.245224   62.662956   79.494759
H   39.925137   64.314377   37.058487
H   67.684868   94.930908   59.199383
H   18.834604   43.276718   46.972572
H   67.116364    6.167722   79.436539
H   22.698887   74.395454   28.268007
H   53.651009   16.406155   52.902317
H   85.697556   60.614532   59.917099
H   90.002098    9.368503   94.769073
H   26.784731   81.061905   59.352989
H   25.078064   62.515652   46.327774
H    9.037806   25.845951   24.172672
