100
TIME:    0.946, STEP:   946
H   53.348061   35.268227   98.279922
H   74.955513   56.036961   37.673580
H   96.018036   41.962688   12.232277
H   81.635391   93.674034   88.309807
H   86.697815   48.583595   40.054680
H   13.346954    0.184061   72.431755
H    3.391386   25.215811   64.431206
H   45.532562   70.442184   21.335114
H   30.373512   95.339249   40.539856
H   48.987862   29.967056   44.735405
H   12.260406    4.306973   48.625603
H   19.733456   71.108833   25.591402
H   83.086975    4.472979   31.104471
H    8.241438    2.160532   29.231098
H   92.007698   85.524078    5.298199
H   63.487640   28.992802   54.514145
H   48.009544   44.557480   59.486183
H   21.359741   48.696747   66.750290
H   59.995026   18.038408   13.202394
H   67.042030   85.698059   80.726067
H    8.139557   62.041016   31.568512
H   53.056507   45.348549   38.705502
H   73.113564   86.928459    5.283148
H   31.147903   48.027531   36.816650
H   95.750237   11.149586   43.542328
H   42.321323   99.422623    0.504962
H   80.504547    3.152080   18.738501
H   52.719643    0.595290   98.042313
H   31.741013   34.920170   12.454674
H   37.266491   67.426376   58.592770
H   53.314701    6.875805   34.553154
H   25.488043   26.375679   11.688087
H   36.992634   99.268913   83.020103
H   18.072868   87.027534   31.896975
H   57.257515   87.409706   82.333221
H   54.806122   58.798046   17.389280
H   70.532005   69.891457   83.006477
H   24.891357   41.639690   89.198280
H    8.190903   60.313683   51.457878
H   74.090187   23.621630   12.463003
H   70.591843   88.641304   64.631882
H   46.600090   54.316231   47.244740
H   19.389288   69.172821   69.802773
H   18.950808   28.624952   73.228279
H   74.596336   94.567337   37.060051
H   65.869499   80.987846   87.028038
H   46.068958   76.772842   35.706734
H   56.289936    5.123392   27.111021
H   92.683952   54.100693    6.736867
H   45.730434   45.148121   17.500816
H   43.472446   78.313194   63.391346
H   51.106377   75.957794   11.958015
H   28.502947   27.493958   47.928223
H   54.783245   91.769051   73.561111
H   65.449936   41.436344    8.433554
H   94.749893   11.537745   60.422729
H   56.222801   62.250557   45.959969
H   55.617371   87.549431   89.188065
H   64.884743   78.739105   38.858448
H   96.593231    0.499526   36.703087
H   19.375040   34.577812   40.637756
H   65.335754   19.140121   52.552635
H   38.399483   42.643776   68.658791
H    7.998953   46.940491    1.454306
H   69.872215   85.288811   83.660591
H   43.230965   95.244698    2.120700
H   11.669100   81.067596   12.735001
H   15.019267   71.639755   11.426871
H    4.049485   81.812805    0.899942
H   49.549202   95.723778   99.741119
H   91.991798   31.035688   50.801640
H   95.965469   20.129799   25.882902
H   45.311172   71.512154   37.492039
H    9.369319   89.514862   46.985008
H    7.783082   29.989744   73.111015
H   48.024380   68.203636   32.276196
H   52.846195   44.553337    7.773224
H   76.425125   88.864235   66.685654
H    6.895608   50.731297   28.236694
H   53.131943   57.434357   39.422363
H   29.394390   39.068462   36.528316
H   12.301857   50.405655    7.673450
H   77.652336   23.046419   20.001560
H   15.245480   93.112038   77.023415
H    6.266687   89.710846   56.048347
H   29.519161   43.803249    7.476366
H   30.335928   34.571022   68.652008
H   71.183899   29.554874   85.907692
H   75.314644   41.499962   20.460434
H   82.697891   70.358047   58.031841
H   62.736759   24.513460   53.439526
H   48.281376   66.654320   51.547066
H   45.980736   55.974686   92.099724
H   38.662498   70.615776   90.602592
H   40.237003   64.993713   37.823784
H   72.057297   58.374382   18.587044
H   87.513565   21.969221   82.783600
H   10.338542   24.292297   40.900162
H   63.646782   40.928127   65.808357
H   97.991226   54.405682    6.572391
