100
TIME:    3.597, STEP:  3597
H   74.071930   92.158173   95.852859
H    1.212461   99.767548    4.897627
H   41.583908   32.686043   81.118340
H   82.080353   84.453239   42.999577
H   62.953049   61.072918   68.175232
H   72.245003   97.311195   34.968826
H   64.449776    4.223381   71.743019
H   37.169189   99.788925   77.929726
H   65.206810   40.456573   73.669518
H   76.544502   68.030952   48.545845
H   65.670853   10.975554   93.268364
H   18.552391    3.989786   36.890175
H   14.457612   44.083969   67.615654
H   76.978706   93.988899   30.973438
H   24.254307   48.728592   77.868660
H   56.897079   97.122185   34.459328
H   34.857887   19.884823    0.837450
H   78.006432   19.778740   74.841980
H    1.293205   29.251848   52.864971
H   95.610985   29.430037   61.233116
H   50.825638   98.123962   59.611786
H    7.228241   48.859055   12.960464
H   37.718895   65.368050   29.436729
H   84.841209   79.822052   39.929218
H    0.935521    0.898315   63.104469
H   30.164255   20.431398   52.023521
H   51.906063   92.953629   71.342262
H   29.037748   24.335495   85.669334
H   89.383759   75.440048   87.140633
H   38.917542    1.813682   69.339813
H   57.621525   44.605251   24.795753
H   92.874092   53.128288   66.271751
H   23.724947    5.309058   21.843122
H   30.083828   44.079109   20.214996
H   91.358826   87.014397   43.759888
H   85.303871   67.049530    8.270638
H   24.798443   72.805649   91.894951
H   15.322288   93.121910   76.271202
H   93.241241    3.046148   95.736580
H   24.396576   75.444672   21.038355
H   89.422699   79.604828   27.089460
H    8.343315   73.294785   71.791443
H   42.223904   85.070084   61.287601
H   49.665970   73.055542   32.429832
H   44.642292   89.972565   63.915829
H   31.681400   31.524067   97.773445
H   69.836227   20.455025   59.992889
H   56.431515   32.417892   91.139931
H   70.171677   34.545860    0.987132
H    1.317294   85.487267   32.085423
H   43.270191   22.376526   91.343018
H   79.940460   29.964188   37.925915
H   83.488976   42.865356   93.960976
H   93.396599   48.519638   90.542816
H   54.394943   73.817566   30.940657
H   98.066879    8.750708   70.176437
H   24.286303   85.756630   98.091972
H   58.216057   37.195663   20.905048
H   73.963890   90.750275   35.339321
H   21.654373    4.264533   61.303352
H   86.601906   11.295753   33.945309
H   71.250053   94.461716   32.601624
H   18.260214   61.830376   86.813377
H   90.038994   61.361290   29.481777
H   75.094765   73.558266   30.542456
H   80.375832   63.455299   58.866516
H   98.973984   72.718414   40.726055
H   31.896507   23.253767   38.160000
H   36.176453   91.328857   34.635136
H    3.262070   29.060839   94.158875
H    7.810749   50.660149   18.999760
H   77.377548   32.147842   19.976833
H   72.460266   40.383366   69.523186
H   51.029461   21.753731   89.432976
H   35.597523   33.766529   74.074867
H   10.691043   38.106621   53.896229
H   93.539070   14.782207   54.664082
H    0.973927   15.521101   13.087849
H   34.001808   42.953205   57.816643
H   23.121803   13.052921   11.036411
H   81.266129   66.494278   94.973511
H   11.210898   67.718704   85.998291
H   45.381153   67.297821   72.496399
H   97.618408   19.962055   34.886375
H   77.185059   23.889744   99.063721
H   68.509521   41.178391   91.569687
H    7.390234   41.821724   95.062057
H   13.856474   17.309616   58.335190
H   30.332565   93.897438   98.771980
H   48.315815   61.287292   52.800102
H   71.226654   67.657784    9.423867
H   44.435989   66.019096    2.065161
H   16.028957   35.445122   97.165977
H   94.891029   31.416901   69.344704
H   94.399315   27.532200   98.743065
H   91.019012   53.689400   81.659096
H   77.089539   74.105110   30.323046
H   20.069960   46.863983   98.480766
H   37.360527   52.355549   43.750877
H   62.632946   86.328590   51.229881
