100
TIME:    2.119, STEP:  2119
H   74.023102   27.698135   97.206009
H   42.326439   19.633181   11.665894
H   16.178526   26.353020   98.461205
H   81.832275   45.347923   24.013172
H   76.191360   42.604710    8.250423
H   95.158333   98.912422   88.597404
H   41.913364    4.421746   56.161415
H   53.337074   71.921661   13.633900
H    1.538889   82.560120   66.704842
H   16.933645   46.809059   90.666862
H    3.150807   51.505009   35.636845
H   74.965256   29.905001   42.095909
H    8.473355   33.505074   14.517859
H   50.160927   98.544502   18.496532
H    6.274469   80.749756   48.914734
H   16.324287   26.393745   57.146255
H   53.703018   22.129860   66.282822
H   46.426674   91.653526   26.084110
H   78.267494   67.249908   74.998764
H   35.428642   60.812290   60.604012
H   38.532166   45.264675   99.731430
H   65.530945   46.896988   38.825836
H   57.452324   77.388527   71.722992
H   22.163490   62.095798   49.699440
H   53.796013   18.118347   52.196281
H   36.942806   64.466736   90.558311
H   79.355522   54.394245   42.015575
H   53.746216   55.347469   36.814365
H   57.246460   41.343971   57.005791
H   82.245567   38.394913   51.842800
H   99.457191   12.067186   41.734844
H   99.552277   93.967842    3.097633
H   19.616802   13.446289   88.693207
H   67.633980   79.529099   82.481354
H   28.100163   98.739838   53.759651
H   56.793499   50.943302   13.355443
H   83.038452   26.934385   75.434265
H   76.408028   20.170368   71.972527
H   55.630898   35.246033   38.965050
H   63.606319   13.809279    4.752264
H   90.431343   28.891741   92.267258
H   41.177551    6.958576    2.354279
H   29.493025   76.206955   54.530167
H   44.046349   48.285751   87.918503
H   72.847267   48.284702   37.439491
H   50.749531    3.333454   91.774483
H   58.283779   40.076630   45.796097
H   56.352581   17.200445   99.689674
H   26.970770   56.952885   59.948334
H   70.329704   63.001934   35.458767
H   43.382954   65.067757   75.759247
H    8.112658   67.112625   34.953732
H   52.836037   34.295410   79.802086
H   27.622181   72.635490   25.321592
H   72.067368   44.268070   18.386854
H   96.217575   10.304981   20.491043
H   30.587175   28.404381   57.521996
H   68.271820   76.774078   58.975296
H   57.396873   28.302092   48.807007
H   19.187145   90.660873    3.341010
H   93.368454   80.028023   49.181164
H   23.704597    8.220406   99.475052
H   17.962891   62.653435   88.186447
H   88.547363   53.321327   69.612358
H   16.428089   91.602875   92.899429
H   71.171761   36.931190   71.477165
H   17.557249   21.622675   69.367569
H   33.992073   38.725586   67.503052
H   62.514748   97.528511   27.332306
H   73.313049   54.723763   97.271118
H   54.744896   51.223076   36.733158
H   99.246460   81.199509   11.764536
H   68.828842   13.492817    7.413509
H   83.557091   15.284648   77.270088
H   64.335228   31.658785   62.032574
H   75.754402   43.380959   53.346966
H   59.347267   42.886307   28.524996
H   31.534801   12.164015   31.464436
H   63.124359   47.294559   41.319496
H   95.605507   93.548569   38.367378
H   52.349293   51.203686    6.636729
H    0.313347   58.066238    9.587797
H   51.872059   42.625397   31.724064
H   95.937569   93.487160   69.882629
H   49.152054   16.338837   42.339096
H    2.519412   86.889275   88.932945
H    8.677954   49.284363   24.585524
H   90.066879   35.642166   73.711830
H   99.656685   76.189796   10.863529
H   78.990768   22.093407   99.968163
H   10.740875   87.851410   78.211136
H   35.072643   54.873394   73.897377
H   21.242939   91.125412   82.846603
H   52.037823   41.765888   69.690788
H   19.955276   59.923447   64.779015
H   68.942291   12.054647   57.999863
H   94.406418   89.285698   15.323906
H   14.645383   34.279694   22.131168
H    7.769091   45.984470   67.551010
H   70.838394   24.274605   93.595490
