200
TIME:    0.037, STEP:    37
H    3.233376   63.148708   11.868402
H   26.154938   29.914328   81.656189
H   22.392542   60.252876   35.349358
H   10.999807   74.601051   49.808094
H   17.365568   78.584244   56.577152
H   96.222534   58.324734   71.558647
H    0.418169   55.448166   45.722141
H   98.339645   80.120361   32.277969
H   79.184387   90.549553   52.671600
H   18.007214   77.742424    4.079328
H    5.117940   90.257637   86.546677
H   29.938370   36.604481    3.069690
H    6.191791   80.270744   69.611656
H   13.999069   52.350468   32.483791
H   29.422855   70.381882   43.478069
H   35.217453   34.330482   58.702145
H   74.657715   98.210991   25.288015
H   41.382717   73.408257   47.134415
H   58.271252   37.050938   39.495487
H   89.410416   82.492455   45.340008
H   55.648865   66.624672   35.140820
H   94.548332   41.055046   78.397514
H    1.084201   64.017433   54.007080
H    4.342003   86.263527   92.233536
H   94.423096    4.539449   52.653934
H   18.829134   53.327873   13.661161
H   94.964989   54.723499   40.919861
H   89.851593   61.755039    0.197128
H    2.518686   62.700020   39.527042
H    2.222904   15.326237    5.647782
H   13.626525   42.968204   15.946623
H   35.617538   58.748520   88.605255
H   32.028244    4.617435   70.699577
H    3.145466   63.356445   34.742073
H   57.730183   98.189133   35.763210
H   39.692303   54.550442   77.148682
H   80.438004   78.810463   84.430946
H   42.956337   39.504219   24.294714
H   60.583321   53.669754   39.919300
H   92.029549   40.523273   71.626068
H   80.445480   14.710287   94.786232
H    3.235197   47.363674   45.850422
H   80.356949   92.445267   42.790432
H   37.733505   53.375278   11.488103
H   21.841240   70.101631   37.038246
H   43.916492   19.121649   40.480110
H   76.148697   36.157589   91.727852
H   95.057938   65.553703   54.945450
H   79.229668   36.455730   61.019974
H   69.381317   16.885408   14.300895
H   83.037292   73.065521   35.913803
H   28.898214   32.203960   59.176441
H   46.702648    0.231637    5.272379
H   25.427851   77.899811   78.697006
H   85.791458   80.899590   97.338577
H    7.907970   77.351028   72.000916
H    6.009820   15.977279   51.832157
H   65.190842   53.860302    8.967364
H   32.464622   70.555984    2.216700
H   47.798378   97.129066   70.746895
H   51.076969   19.336990   48.167507
H   86.289345   15.944013   47.510445
H   65.854713   21.001179   91.733566
H   19.207541   64.862717   99.135262
H   68.085121   73.052780    9.628449
H   46.702686    8.674596   29.214401
H   93.757912   27.443941   81.641060
H   98.478218   90.988396   83.252502
H    9.301927    3.109994   64.549210
H   46.405510   38.091827   50.993435
H   58.554218   73.081078   67.851364
H   37.845375   29.157722   46.185822
H   71.050919   22.153591    6.292938
H    1.251914   13.426690   54.663307
H   76.673203   97.585197   77.157768
H   48.182693   26.243523   64.203873
H   96.285599   22.392988   75.016991
H   34.074013    2.273396   54.909111
H    9.987213   20.649014   39.434528
H   71.334908   91.799095    3.888859
H   34.752308   33.532784    4.146845
H   17.710527   72.240692   94.132835
H   11.791714   11.439561   96.219238
H   31.293884   55.221581   87.235199
H   46.137089   97.177261   63.535091
H   18.948004   92.876968   32.008633
H   26.756987    2.361102    1.305943
H   77.019646   26.099617    3.785524
H   59.478359   71.545769   76.427567
H   24.460896   76.948151   57.098827
H   49.752075   33.140366   81.657417
H   85.469452   86.754379   93.938370
H   37.616295   19.151564    1.511312
H   69.131180    1.726793   63.530724
H   19.981058   59.672165   59.485062
H   77.678780   23.170635   38.606079
H   76.551888   21.300508   89.586433
H   12.475288   25.284258   46.671551
H   41.617744   71.811562   52.161846
H   63.674793   94.628510   27.200846
H    0.809192   74.813660   59.380428
H   83.023613   73.585365   66.984360
H   18.971395   44.588547   27.665888
H   12.121380   67.564682   82.101036
H   25.607838   30.140484   18.506050
H   79.386551   36.711891   53.394779
H   56.042011   27.576162   57.203979
H   65.946846   26.480206   26.591145
H   67.637619   42.652088   89.316505
H   97.845932   30.890760    4.543730
H   44.523693   97.830826    0.653025
H   77.842796   58.239788   88.198853
H   60.619808   77.918983   98.350906
H   63.911827   23.773775   80.188812
H   70.624565   73.515396   33.890507
H   22.322895   11.736059   69.776527
H   40.921246    5.584185   81.813583
H   41.801044   17.004608   38.036278
H   11.152966   50.092129   93.572571
H   65.425446   42.623287   41.770061
H   38.435860   20.410458   94.171783
H   27.048149   32.288952   42.216892
H   27.342272   30.384151   18.007156
H    7.068174   74.624359   26.754740
H   82.988686   13.974504   99.527138
H   40.285168   56.797775   29.450928
H    0.432456   48.242081   78.894623
H   79.868988   85.977837   33.288090
H   89.969559   59.831795   89.516434
H   57.905876   25.111517   63.043213
H   40.414429   92.433929   95.653587
H   89.491852   84.037979    4.539816
H   93.100624   72.718246   95.865105
H   10.874702    7.798131   47.208157
H   94.397774    5.040632   65.745110
H   67.764824    1.887382   86.672272
H   68.556633   86.047234   45.232956
H   89.486824   70.558479   86.405869
H   41.007156   41.494743   71.598099
H   43.337982   18.826117    1.098243
H   40.567707   69.039040    8.352657
H   66.583557   34.842861   41.514633
H   61.531231   53.024590    6.231191
H   67.014977   33.876110   74.760506
H   30.759983   76.499565   42.430531
H   38.502178   58.477840   39.568554
H   39.930077   97.666786   48.735413
H   48.195480   80.975128   69.989647
H   59.758396   73.267136   99.962502
H    2.957433   86.404747   97.582764
H   83.375526   57.862392   52.876701
H   25.242352   12.726677   54.513889
H   66.745308   39.429096   10.591190
H    4.543607   96.482658   80.968979
H    5.562791   48.517982   57.080311
H   57.475845   43.025555   47.815556
H   57.186352   54.796158   78.352097
H   43.159939   39.916954    4.968194
H   21.672781    2.499229   10.132961
H   65.954926   65.226624   70.450775
H   51.961910   92.656570   88.813339
H   53.135220   24.108301   37.302601
H   56.481213   43.420376   37.316460
H    3.823366   14.216075   79.884277
H   60.897888   15.200219    7.829927
H    8.416192   70.897606   63.411514
H   78.395401    0.850196   50.069687
H   23.454880   21.696491   39.618397
H   91.314606   28.830372   37.336277
H   17.209003   11.991638   92.689331
H   83.243103    3.219678   35.993111
H   53.175758   72.986511   56.834736
H   33.750690   86.176895   96.135880
H   73.720940   79.410507   69.541916
H   80.872955   96.563629    8.775836
H   94.639565   46.564323   23.091988
H   37.503159   46.579723   78.416077
H   99.930840    9.007263   62.284466
H   80.793037   26.098658   71.509102
H   95.957092   52.277534   83.521332
H   85.124016   77.914856   46.439167
H   15.133155   29.858242   62.205318
H   74.980408   90.376389    2.052261
H   47.060738   24.844376   69.722130
H   82.897804   97.139122   79.233170
H   95.010612   34.510834   82.938210
H   24.283840    8.001840   94.767532
H    0.173636   58.626282   18.423513
H   12.497110   60.268150   64.223358
H   45.922085   59.377583   63.138264
H   38.122665   37.740574   80.751106
H   49.317066   79.412491   27.210054
H   99.591431   12.694581   53.156040
H   38.650242   55.428707   29.221951
H   91.860962   63.322594   22.480318
H   74.832535    9.885324   32.347618
H    8.111917   80.024117   96.615005
H   34.809315    1.440500   52.691730
H   14.620361   11.043884   87.095940
H   10.125094   41.870041    0.569196
