100
TIME:    6.385, STEP:  6385
H   85.531082   36.485069   93.300369
H   24.136929   50.858738   80.700661
H   89.518234   33.265892   48.393780
H   82.548309   69.588226   90.179077
H   37.981186   84.543335   92.582413
H   29.005619   94.290749   11.073860
H   18.332794   92.482903   89.768394
H   18.037888   40.985218   21.944019
H   96.672386   72.401642   98.173210
H    0.362360    8.063080   57.716312
H    6.337875   23.156652   24.714317
H   12.142044   43.737568   38.437325
H   36.626724   75.476753   90.575859
H   38.933403   85.395515   43.141911
H   58.158211   99.693169   43.847477
H   44.797318   53.273598    3.029885
H   10.663424    4.289827   54.640083
H   37.607403   84.145065   78.187538
H   44.713932   46.212982   99.750015
H   20.495010   70.217567   51.053093
H   85.381775   20.570156   83.942726
H   74.516510   52.560165   75.536560
H    0.493297   42.693428   49.668549
H   25.799065   13.211397   32.867496
H    1.220820   79.797699   83.694557
H   17.439890   37.903160   90.000572
H   11.492828   77.061172   26.655310
H   93.794327   54.469917   77.828079
H   50.006721   28.388897   55.349487
H   45.821903   32.811241   90.978134
H   67.347343   94.611183    4.218102
H   68.910065   76.099472    8.172585
H   20.107590    1.325848   73.008179
H   47.883598   88.575638    2.762135
H   22.051285   76.235970   13.518832
H   27.674517   85.529106   99.351845
H   92.203712   70.702759   11.578269
H    0.090065   42.105518   73.012474
H   75.560455   42.297417   25.558138
H   61.796886   14.440714   40.393017
H   98.882660   75.266624   92.773537
H   62.120956   66.641922    5.925951
H   66.236603    1.789538   62.668159
H   71.638855   19.814779    5.027654
H    2.804688   79.971878    2.491550
H   95.706718   84.700943    9.100977
H   91.617477   72.075882   86.754677
H   56.580410   61.133408   63.645542
H   51.667961    3.645040   89.773605
H   59.794743   27.916193   37.092575
H   43.063168   53.213120   20.734592
H   15.433418   71.259796   54.900703
H   41.316875   59.031128   32.037479
H   28.830185    3.023017   13.568931
H   32.412224   18.155556   54.657070
H    1.548269    5.817323   75.266327
H    1.034154    5.309939   63.254082
H   50.615143   73.902977   49.093002
H   93.848740    8.551366   21.306435
H   37.674400   18.560047   82.006004
H   62.471394   81.639175   16.571682
H   72.301796   68.511398    6.451771
H    7.537651   71.582069   95.631836
H   81.486618   76.544907   53.789288
H   85.754623   50.885418   90.175941
H    9.106487   24.855675   23.714872
H   75.287857   69.106201   75.329788
H   39.310234   82.701942   71.442520
H   75.130562   91.000961   59.777958
H   59.741310   69.290459   88.288147
H   19.279881   60.965790   85.556618
H   47.494282   39.619370   24.101242
H   90.676849    2.479530   98.034485
H   89.651131   45.312214   23.778231
H   70.016106   37.744160   85.424088
H   76.604607   16.790962   66.298676
H   46.677334   73.163353    3.980472
H   31.959240   33.220474   67.060875
H   67.695320   34.763966   88.918709
H   86.398941   61.198555   70.847740
H   35.817108   95.337418   61.605457
H   20.422613   85.878510   52.834782
H   21.740181   13.897981   38.018761
H   89.427406   58.537498   80.245750
H   41.433113   49.500542   28.798141
H    4.337306   43.586258   85.176895
H   93.594429   39.111275   28.004904
H   58.717369   94.139465   29.375298
H   88.189316   38.665169   75.969734
H    1.818395   46.580799   52.464027
H   85.323143   18.203884   68.301315
H   50.724239   75.692474   55.183380
H   94.744400   19.100483   12.766429
H   64.351784    0.543758   57.329727
H   46.199791   77.800552   62.806583
H   21.296448   43.594452   37.655518
H   55.790947   34.101578   69.982101
H   25.952799    2.389402   50.701553
H    4.546502   64.374184   10.225868
H   35.807819   14.785858   82.653328
