100
TIME:    9.241, STEP:  9241
H   92.391266   74.577919   90.685623
H   45.261887    5.619247   60.780910
H   38.615185   38.738014   14.865046
H   83.027679   51.921684   33.631584
H   12.391905   13.463943   15.144661
H   84.716919   91.196632   93.912933
H   68.647774   85.334511   13.111416
H   93.561920   88.065994   59.716736
H   26.466454   97.807373   18.398802
H   22.354372   49.072071   69.543251
H   40.679718   38.072617   49.608009
H    3.136147   86.894310   35.144066
H   54.481781    2.643667    6.762715
H   97.522949   76.592537   60.485416
H   92.847176   44.581154    6.502045
H   29.963291    3.477227   65.957092
H   81.000710   93.191658   14.633039
H   98.679550   45.171791   79.187088
H   89.198746   66.026627   50.212337
H   43.545910    9.570986   45.502831
H   15.902668   36.246742    6.427612
H   48.324017   56.351547   32.321747
H   62.361534   19.471647   67.954529
H   60.436611   47.377411   20.756845
H   99.074081   53.303749    4.784564
H    4.033735   53.678818   21.262396
H   65.218269   58.341259   83.322495
H   52.812325   87.778351   72.232414
H   12.107734   87.508018   20.344807
H   55.333748   62.124710   18.021553
H   79.747887   50.713627   78.260590
H   49.239643   97.194565   43.778404
H   21.280327   92.367264   30.299215
H   68.556305   26.840088   82.443199
H   50.972832   59.996620   87.282578
H   75.941925    9.227048   90.374550
H   66.130249   66.109627   36.619892
H   82.043861   89.838188   74.552208
H   55.008038   80.072044   48.790649
H   92.794647   47.072189   65.098465
H    3.695064   73.261978   60.058437
H   21.432877   77.841751   51.729397
H   90.815216   18.922668   68.958824
H   89.278358   67.759254   84.269844
H   55.066872   67.301308   46.890278
H   58.841850   39.168743   20.703913
H   13.939441   27.395880   14.174345
H   56.751644   90.549301   40.357868
H   35.153374   67.109657   75.847931
H   19.752325   71.391075   37.402027
H   42.867062   77.484413   50.843674
H   54.241848    6.242433   67.421913
H    0.549360   75.591187   66.171188
H   62.687050   56.432343   39.595345
H    5.012331   68.442764   78.939011
H    5.105413    2.813088   78.041336
H   82.090942   22.901573   34.883537
H   37.951599    4.188391   75.527855
H   19.096813   29.234388    2.053392
H   49.207333   38.082462    0.774569
H   42.631603   48.821095   93.897041
H   70.936760   41.928146   77.230080
H    1.431629   76.693626   99.787354
H   77.603455   92.102646   76.247803
H   99.113281   22.779873   56.142872
H   33.659523   82.876183   92.584404
H   46.146042   67.845184   13.217400
H   42.026764   46.040474    7.975845
H   17.471392   85.787018   80.653717
H   17.704895   12.796831   82.243607
H   28.582119   66.642113   51.303444
H   12.293653   44.763084   33.407635
H    4.461384   61.211086   24.809803
H   26.779392   64.555641   54.084541
H    7.619660   41.922115    1.960566
H   44.121826   99.833733   74.126450
H    6.062521   25.968204   54.635368
H   66.131020   46.481117   24.795540
H    4.654170   26.374989   20.786547
H   46.337700    5.617821   24.800713
H   91.723442   24.884745   32.305397
H   34.733406    4.404155   13.902205
H    2.386895   61.660435   10.008603
H   85.914925    2.931322   19.395168
H    2.371490   70.839157   51.942307
H   38.610340   48.492149   83.506210
H   84.340340   31.456184   64.189720
H    4.649376   65.601784   99.763412
H   47.462406   79.648384   52.611336
H   49.310757   29.076424   54.558517
H    2.202525   72.416321   28.615135
H   62.039318   90.491257    9.606606
H   77.819473    4.789579   33.625298
H   40.371918   73.813705   49.903988
H   96.818024   21.976902   28.433310
H   57.190308   30.814325   90.139084
H   29.094921   98.000984    5.729471
H   20.440042   43.704716   93.364647
H   68.493126   76.707069   71.007637
H   13.206274   41.494991    7.524563
