100
TIME:    1.880, STEP:  1880
H   90.185944   49.615707   97.424820
H   48.974648    6.674986   96.590141
H   12.070349    9.159030    1.266230
H   81.792160   55.194420   37.113926
H   78.332062   23.447803   14.730421
H   98.863533   99.171349   64.929344
H   54.438473   88.284004   37.471306
H   72.122002   51.245144   35.578773
H    7.414009    5.539022   81.748100
H   23.464243   43.377373   81.309044
H   25.382004   41.888264   58.657589
H   84.086029   17.925097   59.108467
H   23.675938   47.964836   38.272263
H   61.994957   99.281166    0.307883
H    3.367220    2.098353   60.404137
H   25.934387   47.298035   76.985123
H   72.918274    6.324409   44.523697
H   41.319260    3.276136   34.370407
H   74.544060   57.223480   62.406422
H   41.867157   65.887558   44.331764
H   52.714767   69.058167    6.218285
H   42.614567   46.581322   59.177338
H   60.643318   79.332298   78.560837
H   44.369164   59.229374   67.450134
H   62.344231   37.072853   50.433029
H   38.038685   71.589035   12.960185
H   99.963875   64.330032   37.272846
H   73.912369   44.191753   28.914671
H   52.049698   19.660318   68.303734
H   73.081032   44.310104   32.842709
H   90.055611   90.634155   60.645588
H   84.461609    0.572149   25.223030
H    2.781670   30.932026   67.162201
H   57.535851    1.432060   92.550308
H   34.041481   16.806740   39.206894
H   36.013744   32.167492   14.176896
H   60.114662   35.687355   56.601933
H   86.287346   24.544765   55.106808
H   66.204453   40.375542   61.938889
H   86.118294   36.183834   85.948868
H    6.764832   20.690886   86.636520
H   62.657501   96.232155   91.125748
H   27.434378   74.773743   37.267799
H   59.308418   44.279686   64.549484
H   93.579613   57.713634   16.986799
H   53.832943   98.774910   90.804420
H   55.931141   27.156046   43.687691
H   56.339817   14.739733   84.901695
H   19.985228   76.747337   69.481979
H   65.318932   59.364201   52.174107
H   43.401188   88.141380   73.239273
H   96.498070   89.289124   50.644306
H   47.878143   32.909607   93.681999
H   33.156277   76.533974   14.775812
H   91.092987   23.315470   16.359205
H   95.918533   10.556158   28.627167
H   15.436317   35.300575   34.791176
H   86.068451   99.344437   65.131180
H   38.548126   18.203051   67.155823
H   34.957951   72.291687   10.138295
H   78.292374   91.143623   67.815117
H   32.186279   10.445440   10.289433
H    1.751342   78.951210    4.582789
H   72.136536   52.021225   76.100105
H    6.941693   10.691165   70.642700
H   85.853981   48.812630   57.345623
H   36.733078   13.359969   57.828930
H   50.501366   25.056728   56.077473
H   50.602310   14.701508   42.322685
H   68.470032   42.701920   97.774384
H   62.333992   67.485573   39.599796
H   18.952799   89.131409   94.266258
H   84.411835   25.314083   13.542042
H   88.815849   30.409071   91.474571
H   52.812950   31.318716   43.915020
H   70.105431   28.062597   69.428368
H   37.646683   63.602242   24.297384
H   20.306149   27.791681   18.264660
H   51.667328   47.994968   38.653404
H    7.326626    6.564665   58.957497
H   47.672207   48.731121   92.352257
H   82.381760   56.505386   29.573450
H   36.750393   38.635742    8.960564
H   79.497566   73.035622   91.712677
H   60.789154   31.289101   65.507538
H    8.020458   78.111305   72.336128
H   92.715660   66.661606   13.189003
H   86.219452   54.777191   76.198982
H   94.696968   89.497154   12.818697
H    0.120630   31.927139   91.423592
H    0.959864   74.945206   73.163895
H   17.388247   36.899380   69.342461
H    5.908844   83.962997   64.357071
H   28.936848   27.268133   53.576538
H   24.088070   81.330811   59.286858
H   49.201889   21.491976   70.344452
H   13.377007   75.569893   29.068909
H   13.767859   32.244751   25.955803
H   19.153976   44.954235   87.572220
H   55.995712   30.413166   16.614815
