100
TIME:    0.156, STEP:   156
H    6.773071    7.715349   99.003189
H   96.930763   13.202820   87.840973
H   82.444733   85.127281   21.508171
H   81.502792   26.223455   31.612020
H   93.773773   85.261612   61.475426
H   25.597282    1.043864   94.194420
H   44.794079   71.872398    2.651918
H    7.625006    2.098697   93.870247
H   49.793221   71.294601   90.267281
H   70.577370   18.626839   13.797678
H   85.744293   72.519547   24.723091
H   49.887646   31.509987   81.825035
H   33.339500   52.269211    9.624131
H   47.357807    4.596283   69.112679
H   82.400307   56.087090   43.274029
H   95.251099   98.091957   20.090229
H   11.524057   92.313637   87.558342
H    4.478365   87.114258   94.137985
H   47.693466   84.897644   71.580200
H   88.426613    2.261278   26.830652
H   55.019287   40.687416   53.007401
H   77.306068   44.305840    5.972036
H   83.661201   93.353477   27.887527
H    4.547453   38.552738   95.488419
H   24.003489   73.801613   37.710281
H   45.940662   22.964195   74.549431
H   48.627110   35.992252    3.061934
H   19.378029   63.720730   71.932388
H   14.563304   63.245480   49.797760
H    6.975715   86.978683   95.790581
H   22.238344   36.031624   97.067497
H   75.607330   48.200249   84.822395
H   81.346619   57.068398   11.850667
H   84.693398   59.426208   65.179283
H   76.894203   47.127823   34.227669
H   86.118523   96.740227   20.107557
H   94.761650   98.822121   20.757328
H   57.540817   56.098995   33.449780
H   43.707630   77.177849   27.174744
H   48.499615   97.578590   50.308357
H   24.580952   61.531406   46.013996
H   17.600784   18.858088   10.129348
H   12.585311   64.435425   12.741522
H   69.397873   15.386159   95.984634
H   43.123436   25.736904   69.456848
H   75.959068   66.136772   83.930046
H   37.727283   34.156162   28.956244
H   56.247746   96.988388   78.230347
H   69.587639   19.529568   38.251236
H   29.161604   33.123814   72.753311
H   43.530071   54.583626   55.066265
H   12.714486   49.263680   63.822258
H   12.115288   22.913269   93.809547
H   73.072876    4.656897   38.699665
H   28.340324   72.181274    1.729904
H   93.761429   12.368275   87.316193
H    6.142321   85.045509   70.824318
H   14.443523   62.154320    9.536680
H    2.581259   45.360352   99.506851
H   48.726059   39.778801   59.168037
H   69.541275   71.314926    2.233500
H   93.374390   26.493332   88.295990
H   84.814522   96.515083   22.855927
H   53.752289   42.643082   22.905188
H   38.513710   48.385151   10.088803
H   91.762154   34.517933   55.409801
H   75.052330   53.754490   74.593857
H   69.589760   26.459332   73.660301
H   64.679161   38.577156   50.449291
H   33.546928   55.991119    1.402721
H   17.078924   84.790092   60.276432
H   61.103138   46.348213   68.044258
H   96.819809   10.591022   57.749531
H   26.757278   39.507839   93.937065
H   69.691818   28.865667   13.223660
H   29.346022   17.570311   85.432693
H   81.119080   13.023087   93.792664
H   39.309494   40.519978   23.055187
H   69.031639   53.043499   19.427910
H   91.874924    0.457628    7.481653
H   13.934769   30.895144   89.312622
H   53.028721   45.246353   73.736023
H   27.666683    9.861171   44.758026
H   60.902336   25.510715   49.181313
H   44.734558   39.126755   32.629723
H   47.706333   14.780917   52.617413
H   77.573601   92.010445   30.981869
H   58.466461   92.804420   94.116768
H   58.920601   85.486626   26.924629
H   52.542702    2.868379   29.788515
H   30.406740   81.854645   36.756176
H   89.829048    7.239225   36.497093
H   95.293678   32.305786   30.983644
H   62.306725   22.694754   37.337025
H   53.894688   35.756268   19.671841
H    6.806581   89.571281   59.391335
H   50.219627   76.632957   28.217232
H    7.438087   17.565918   53.539246
H    1.280701   37.522747   31.984425
H   48.929638   74.696159   82.660873
