100
TIME:    3.884, STEP:  3884
H   54.662994   65.838745   95.590103
H   93.228996   15.328318   23.001204
H   46.517159   53.334312   77.750679
H   82.128525   72.629204   27.267370
H   60.382416   84.077232   60.393265
H   67.795662   97.000267   63.392494
H   49.409100   23.603573   94.186790
H   14.611557   24.617519   51.578609
H   58.151802   12.862715   55.604000
H   68.701225   72.151848   59.785248
H   38.974808   22.523457   65.622017
H    7.597641   18.375238   16.461702
H   96.201614   26.720154   39.090988
H   62.767967   93.104286   52.815060
H   27.745682   23.092712   64.073952
H   45.357697   72.020195   10.635103
H   11.779021   38.866779   26.964193
H   84.137413    5.821642   64.892273
H    5.763084   41.292656   67.984985
H   87.877190   23.335184   80.773430
H   33.794647   69.553589   51.823250
H   34.743210   49.240051   88.519821
H   33.887032   63.033897   21.224499
H   58.175819   83.264160   18.613110
H   90.670563   78.139145   65.224037
H   28.847189   11.880038   25.123560
H   27.156820   81.024490   77.035316
H    4.821719   37.731689   95.154839
H   95.624222    1.479165   73.573647
H   49.922653   94.710381   92.155823
H   68.916908   70.340584    2.089226
H   10.995282   45.199615   39.702705
H   43.941410   84.310661   47.698349
H   42.210205   17.777199    8.124920
H   84.224991   65.319481   61.235374
H   10.260912   89.594025    7.280027
H   52.324646   62.295395   14.509181
H    3.460481   87.871162   96.525337
H   81.128174   96.793083   67.923820
H   97.364342   48.576576   43.619541
H   69.807938   89.453812   33.851055
H   82.549332   86.174225   85.275223
H   44.696003   86.791138   82.018791
H   31.338755   77.863983   60.490601
H   19.747778   78.647766   88.474792
H   27.978725   36.998158   98.938332
H   72.078415   36.063560   62.749641
H   56.446842   35.373901    8.897789
H   78.562363   10.777359   89.539581
H    7.336604   89.853401   12.013027
H   43.248295   94.668007   94.369095
H   93.888443    3.332689   19.084095
H   89.440407   44.529480   77.293465
H   86.748863   43.836006    3.207407
H   31.543900   98.972107   33.381626
H   98.425980    8.448538   60.406281
H   42.479992   77.475426   25.388281
H   36.845207   10.091581   13.511927
H   96.600349    2.876664   13.305943
H    2.715825   26.325117   53.140388
H    4.705967   97.949120   11.569307
H   61.063866   91.790359   19.614891
H   37.745014   42.246269   67.132927
H    9.746347   62.922501   21.688862
H   86.485252   50.635876   57.269215
H   62.744881   49.187630   75.836197
H   75.947769   82.641846   54.582073
H   12.071432   39.667862   51.880260
H   50.481346   70.706863   16.634136
H    9.076632   43.496887   93.554535
H   98.697014   31.132923   15.556557
H   53.712914   22.622925   40.990147
H   53.747635   26.187954   62.165459
H   44.710171    3.591726   72.380089
H   49.433834   34.175991   95.831093
H   17.476297   56.501755   34.585827
H   19.596628   89.907272   59.739658
H   14.457713   96.754921   28.938524
H   47.763672   42.110195   61.020081
H    9.046551   97.422356   86.311211
H   86.880356   69.463425   12.126706
H   32.745850   69.593033   61.999878
H   63.539806   72.088745   99.831818
H   17.363585   44.521553    8.674087
H   63.210800    5.937223   71.242203
H   61.904881   51.721489   11.500045
H   26.558310   20.954491    8.747511
H   18.475512   94.331978   55.350716
H   36.288681   77.917473   96.424690
H   22.940512   49.478584   63.058548
H   82.971863   83.156029   15.484780
H   65.673096   87.600151    7.534100
H   34.425331   44.056961   19.360209
H   22.630871   48.826660   88.696709
H   89.437599    1.823746    5.337802
H   14.724105   42.355843   66.835258
H   54.308563   90.575554   13.816545
H   21.123175   49.307617   93.886909
H   23.688438   53.592693   19.710861
H   80.460793   78.962654   23.581678
