100
TIME:    8.367, STEP:  8367
H   51.495842   54.727287   91.485794
H   69.400375   58.260975    5.670698
H   23.591974   75.859589   25.124088
H   82.880981   87.929375   81.539375
H   20.223577   43.409199   38.840744
H   98.266479   92.143501    7.357699
H   14.456126   26.317652   44.763462
H   62.256592   12.454309   39.963890
H   47.951042   81.839676   73.415253
H   46.227486   36.522724   35.322609
H   21.977066    2.907135   33.797974
H   36.496605   43.084957   97.357353
H   10.213900   55.542053   93.617828
H   40.797005   79.286446   93.971840
H   82.231575   22.651138   48.531052
H   65.104324   79.920494   38.507111
H   51.282692   35.382610   35.069374
H   79.987152   87.700874    9.485504
H   75.582504   29.359165    4.169100
H   67.091812   28.131617   85.996895
H   67.767082   23.255848   30.149828
H   64.532784   55.191299    6.750915
H   74.030693   26.576498   92.959869
H   41.643044   36.921844   85.667908
H   30.331669   22.615097   98.332130
H    8.156282   79.444321    3.509830
H   40.583221   94.670059   65.985458
H   26.558828   46.982975   43.341476
H   93.102882    8.211924   61.659355
H   21.820934   83.755997   48.540833
H   45.350262   72.340111   47.408669
H   94.054893   21.341328   24.688942
H   59.718182   56.312675   51.562393
H   31.628384    6.937105   19.262796
H   72.724144   26.170677   34.107471
H   99.967102   40.769691   93.121803
H   82.302910   98.116463   67.752220
H   18.169193    5.830196   12.877891
H   91.897545   99.116112   33.487495
H   75.114990   28.892546   96.332458
H   63.426300   43.273514   39.467373
H   95.088608   74.414352    7.111357
H   83.293610   13.678953    5.831215
H   45.082241   53.084496   98.816559
H   30.880833    1.775663   72.097954
H   70.121208   22.500416   17.153154
H    7.106205   79.863777    5.781106
H   56.698299   81.547379   86.280113
H    9.607918   39.494881   10.710203
H    1.407082   58.084530   98.511314
H   42.927074   61.863701   41.628372
H   11.764687   87.343460   24.795235
H   82.425346   70.523438   16.929804
H   82.930939   70.692261    1.029779
H   74.601784   91.848557   71.510757
H    4.016848    3.732451    7.794373
H   26.683601   48.120293   51.758812
H    3.032083   86.727104   98.039330
H   50.162945   92.303688   69.152390
H    6.884006   70.904419   25.633202
H   87.497086   89.467285   62.037678
H    1.956737   50.063217   16.773914
H   42.096401   36.334381   59.720154
H   17.586285   87.341629   99.972870
H   64.425873   92.585388   74.751099
H   87.350990   26.324852   40.906696
H   16.268385   37.631214   71.020798
H    2.399717   96.054436   66.193588
H   73.913239   48.587074   35.469276
H   99.954155   68.895584   84.097336
H   56.340969   26.109974   61.785683
H   84.265060   73.782616   69.342758
H   61.447174    4.446135   47.221256
H   46.016834   19.872814    6.015339
H   65.517929   40.635174   35.693119
H   23.457415   43.819366   32.936729
H   26.685154    1.614510   39.132057
H   25.074675    3.626659   76.521851
H   62.739357   28.942204   11.031979
H   89.200188   53.229515    0.096790
H   74.613121   15.842813   80.067093
H   69.148270   98.731750   87.020744
H   47.106216   47.043980   26.773792
H   25.785973   28.141771   99.221825
H   44.927246   25.514851   36.666115
H   58.727970   16.386913   22.813248
H   25.967867   95.003090   22.514153
H   90.593407   35.538300    8.825233
H   29.324707   28.310686   59.759529
H   26.583338   65.037247   23.317587
H   66.434807   25.225056   10.157859
H   97.372169   24.757584   92.953255
H   21.794178   78.569481   66.037537
H   55.903183   20.789051   90.972786
H   11.930134    0.263888    8.351719
H   85.001465   65.328247   35.282646
H   98.469597   47.843605   55.994942
H   22.127069    0.459836   10.912985
H   10.128432   72.932930   44.213947
H   58.916515   63.919781   91.720184
