100
TIME:    7.277, STEP:  7277
H   25.208223   54.685005   92.483719
H   99.504440   99.192680   36.943272
H    4.855762   97.441002   37.920238
H   82.698029   32.838959   41.285778
H   29.990767   56.040981   68.395950
H   15.170302   93.324379   99.411484
H   71.581329   52.716480   59.524029
H   47.928444   18.155338   40.044113
H   74.745323   86.639435   42.025829
H   75.998909   20.871935   92.641731
H   23.366211   59.048435   38.792076
H   78.098938   88.449173   74.944389
H   79.719536   21.518230    1.938731
H   94.768105   82.646126   11.022343
H   68.992439   20.015312    0.952775
H    8.930565   75.255920   28.986677
H   38.934120   63.286350   35.842373
H   56.682995   40.740097   47.267395
H   58.603794   83.632416   46.741589
H   96.464066   51.275852   11.784555
H   32.449219   31.769043   59.730244
H   60.033417   53.744308   99.574539
H   88.583763   35.438850   24.147177
H   42.919846   23.882296   66.621490
H   69.317085    9.056877   90.282204
H   13.295635   11.575985    6.084208
H   34.574841   39.980835   44.356205
H   18.529884   96.105476    7.310422
H   69.402168    9.318583   13.184626
H   80.025940   10.734053   61.889153
H    2.450036   74.597733   33.645927
H   25.231350   51.453709   25.595695
H   82.939339   36.061928   53.366585
H   85.572014    6.829113   65.182816
H   99.851067    8.698982   67.791504
H    5.215115   55.394791   96.548012
H   77.757553   38.036743   81.864532
H   63.218460   25.779316   35.958832
H   37.908154   22.862738   39.116638
H   77.780907   30.934679   10.573312
H   37.919708    5.876220   13.787622
H   86.947945   70.139908   51.462925
H   73.913116    7.140467   27.099300
H   14.683344   34.786705   92.242180
H   25.430298   44.777966   78.822456
H   84.191948    1.714212   12.724863
H   98.586227   20.586243   95.315895
H   56.631771   70.320724   18.837032
H   77.743111   29.768879   54.192993
H   78.521729   41.494030   74.725075
H   43.001919   67.096130   30.136280
H   58.790890   88.487152   96.346863
H   59.820812   64.203247   80.232491
H    8.175735   88.471954   52.929886
H   61.389420   96.325996   62.245113
H    2.659254    4.879025   44.900543
H   57.580837   79.571556   48.090752
H   84.195480   89.664268   26.117033
H   64.197319   46.246250   52.829979
H   78.811409   87.122360   56.635399
H   18.739260   40.157249   47.023193
H   40.642982   60.208786   66.094711
H   68.097252   10.713351   34.464722
H   42.738476   81.403976   29.568798
H   21.158642   79.642853   73.244209
H   54.309784   80.512169   76.456879
H    3.720766   99.948364   18.395819
H   77.693520   33.717400   14.085280
H   19.586067   26.907516    3.830970
H   77.816856   14.150276   86.409195
H   90.954170    0.274619   74.858498
H   74.023598    9.974582   89.447578
H   32.517731   58.361080   75.168274
H   70.010689   88.858093   70.779022
H   13.011956   39.030178   53.048695
H   97.687798   73.961205    6.280210
H   27.689964   95.957100   19.799887
H   73.867020   74.895927   16.320307
H   10.472823   32.143879   98.868233
H   42.653702   12.606618   94.001228
H   53.274162    4.566262   14.919200
H   87.356880   91.663116   78.209984
H   78.162209   28.815222   22.967628
H   50.794819   34.868160   98.776360
H   98.000214   93.701683   42.328773
H   83.810898   76.351791   47.120239
H   53.169163   74.255287   70.538780
H   73.063194   22.760729   20.126732
H    6.700981   89.000893   68.674324
H   22.953924    9.879169   84.351761
H   21.827564   66.367149   87.138718
H   16.723207   42.778992   72.179787
H   51.923176   45.866199   81.746162
H   50.559875   54.659996   17.475687
H   30.778439   97.899551   83.304504
H   94.971924    8.371512   91.582237
H   84.988518   85.291946   18.681961
H   24.231028   46.524738   32.796494
H   62.053551   68.226051   35.512455
H   91.214088   91.894913   96.723282
