100
TIME:    9.502, STEP:  9502
H   74.740631   50.642830   90.446671
H   38.053482   19.762928   77.237175
H   43.101521   57.515709   11.800976
H   83.071487   41.168816   19.325178
H   10.053156   34.384186    8.068178
H   80.670654   90.913872   19.760422
H   54.969051    2.957576   33.521954
H   73.047836   10.646248   35.751778
H   20.050575   72.713364    1.969736
H   15.224623   52.819645   79.762459
H   16.402130   48.574585   24.466509
H   93.175179   99.976967   16.566326
H   37.838730   86.845177   80.824722
H   84.599594   75.788063   80.346718
H   96.017281   21.267342   93.949974
H   19.468292   80.649216   44.292053
H   60.012703   10.454994   38.392899
H    4.261626   32.471458   70.138748
H   93.264923   76.974640   63.962070
H   36.514729    4.028280   63.272942
H    0.414086   10.263357   99.342957
H   73.346344   56.698029   10.095169
H   58.876808   17.349947   60.487259
H   36.184910   50.499725    1.372516
H   89.738998   32.604477    6.711120
H    2.802510   45.984543   96.701118
H   42.711029   47.490818   88.499802
H   30.790792   99.960953   80.858604
H   17.783199   11.187973    8.007881
H   65.341881   55.665024   38.769936
H   90.018867   74.117905   57.611099
H   65.719406   89.982178   19.616310
H   39.665741   73.270966   53.812157
H   79.583969    2.921154   71.447395
H   44.477303   40.235237    3.161297
H   98.630478   29.670443   89.554146
H   91.164520   56.551521   57.185749
H   71.255150   85.063118   92.971474
H   43.990330   74.384972   23.497849
H   68.210403   22.637291   85.632462
H   85.857407   82.218719   66.207481
H   99.436928   78.865265   65.053154
H   93.061371   20.488804   87.812187
H   72.615395   72.140053    9.789241
H   32.428101   57.005077   69.225906
H   55.474609   44.146923   21.764265
H   15.979997   41.591335   16.680723
H   56.767574   93.237518   56.507084
H   42.781937   45.494114   65.437561
H   25.230314   75.365654   19.152721
H   44.190266   52.388412   51.535324
H   66.926254   82.024277   50.289009
H    5.963068   77.104553   51.012024
H   56.643539   52.173012   51.112862
H   84.231239   91.314514   81.157288
H    5.430489    2.538542   69.156281
H   98.638412   15.370541   59.706734
H   18.517477   79.540291   68.805321
H   39.681957   40.263794   82.017113
H   31.984821   58.144527   93.351112
H   59.097431   36.684292   73.550224
H   61.673363   39.498795   65.421837
H   19.151039   58.883690   81.889801
H   95.524902   93.524414   69.162857
H    9.472823    1.933319   80.448341
H   17.626694   69.901054    8.016994
H   25.205502   76.869629   25.819164
H   23.997787   60.967049   20.453156
H   30.480371   67.033218   64.285461
H   23.005661   25.905497   81.690033
H   20.293449   48.882252   48.173164
H   90.800697   36.097069   52.537785
H   87.443909   48.301670   18.117138
H   21.034573   48.037975   38.576515
H   20.191557   42.306431   21.749487
H   50.292778   16.561432   56.564278
H   29.767429    3.377275   59.265076
H   78.393272   29.415916   39.210358
H   17.169699   25.608349   23.699778
H   33.537804   91.399849    2.315519
H   96.833046   27.584909   47.905022
H   54.317566    6.098478   92.066628
H   18.895620   66.025307   34.865650
H    3.871995   25.266132   95.557030
H   89.663193   54.511887   26.641417
H   32.602673   58.080124    1.630805
H    1.771947   12.479270   76.635170
H    8.846678   44.717323   97.059265
H   52.878666   65.116081   50.476692
H   26.234156   18.337494   63.887627
H   12.884184   86.510544   34.126976
H   81.350677   10.120878   14.578813
H   94.550140   12.621252   53.808830
H   64.254250   89.545761   69.563118
H   92.305801   98.597572   34.430428
H   78.747818   20.508497   76.658173
H    8.378539   12.978900   90.719070
H   19.936251   56.618114   88.123619
H   56.059624   77.834129   49.146099
H   29.417305   34.798344   82.382294
