100
TIME:    8.303, STEP:  8303
H   55.823967   60.596428   91.544388
H   71.167953   54.792713    1.635255
H   22.491877   71.255096   25.875309
H   82.870239   90.566093   85.047188
H   20.797064   38.279316   40.576096
H   99.258667   92.212837    1.019550
H   17.810318   21.995874   39.758579
H   67.286865    6.917577   45.840355
H   49.524284   87.992996   77.443573
H   47.975533   35.603779   32.816750
H   27.930191    0.332021   39.962524
H   38.939476   39.876949    1.912932
H   14.295076   59.415588   99.978180
H   43.965950   79.483711   89.101723
H   81.454231   28.367935   51.608688
H   67.677567   85.518150   43.819611
H   56.429176   31.149700   29.243200
H   78.618988   90.815132   11.703888
H   74.585434   26.674107    0.797485
H   68.816422   29.490747   81.639473
H   71.564934   29.627430   31.886889
H   58.397038   55.106339   12.201096
H   74.885185   27.096762   94.790924
H   47.589821   36.156219   90.420837
H   32.620552   27.690781   97.859474
H    8.458080   81.331039    9.532640
H   46.102264   97.330215   64.715927
H   31.958975   43.995670   41.225754
H   91.711281    2.405414   64.684746
H   19.367077   85.339981   43.452942
H   42.831219   66.600853   52.472145
H   90.013878   23.109394   30.613747
H   55.209881   60.995293   45.796768
H   28.924038   12.802229   21.958841
H   74.316917   31.016380   30.213430
H   94.403625   35.756508   93.322975
H   76.164238    0.460259   62.709255
H   20.814457    7.001461    8.361777
H   94.598717    0.510559   39.689644
H   81.143311   34.884117   91.297302
H   67.800323   41.077713   37.959560
H    0.482174   74.163376    3.844083
H   82.742828   13.295042    1.208534
H   49.168667   52.009789   92.558746
H   36.432152    4.300531   66.621391
H   70.947380   21.279957   16.893145
H    6.605877   76.383308    5.166486
H   56.694393   80.888199   82.320152
H    7.737304   44.795174   13.263304
H    0.063703   57.110409    2.986129
H   42.931469   68.042412   40.953568
H    8.654213   93.281937   28.996651
H   81.098198   70.152344   20.646845
H   84.413361   71.736206   98.205643
H   79.697487   86.240158   70.966812
H    3.937135    3.799773    9.973083
H   22.626472   49.966972   45.671898
H    7.797585   92.771049   99.687767
H   45.115093   89.599586   74.065475
H   11.107272   65.985474   27.453514
H   83.459976   92.443848   67.027718
H    4.228249   50.658920   19.669666
H   37.751186   40.701569   64.108826
H   13.191509   86.992996    1.710590
H   61.885429   97.696716   68.791138
H   91.282631   29.506493   37.122517
H   21.403395   35.418812   67.930954
H    6.820738   92.394279   63.134018
H   70.723785   53.185707   39.483437
H   98.654350   65.680740   84.233078
H   58.373684   30.464710   62.553261
H   89.535568   75.907616   64.651352
H   65.620026    7.611845   48.862370
H   47.425526   23.923351    9.817862
H   62.434921   40.540936   30.840582
H   21.944231   39.717316   37.242882
H   20.872410    7.154001   37.996803
H   22.068083    7.811230   72.986694
H   59.670509   29.130192   10.317745
H   92.338860   56.715843    5.610380
H   73.360191   15.180703   76.241898
H   64.345535   98.316711   92.375237
H   43.057877   45.973667   20.678577
H   21.382896   22.664965    5.067158
H   48.043457   29.518269   42.870216
H   60.201115   14.036082   18.368912
H   21.693453   99.656410   19.462395
H   89.564110   40.659882    9.488808
H   27.996338   31.873919   60.282967
H   32.241795   67.670059   21.029745
H   63.815662   21.769489    8.806296
H   92.636818   19.944351   91.733528
H   17.691639   76.649559   61.088318
H   49.718124   16.906239   86.657356
H   13.036823    5.996741    6.881138
H   79.715332   67.855591   38.588310
H    3.549583   44.170753   59.675606
H   22.250605   97.292885   12.197897
H   13.177138   72.656563   49.574787
H   54.941418   65.562332   97.885223
