100
TIME:    1.610, STEP:  1610
H    8.444880   74.376144   97.672012
H   56.485176   92.036491   79.558586
H    7.429280   89.734291    4.435943
H   81.746841   66.318077   51.914570
H   80.750427    1.806124   22.050495
H    3.050201   99.463860   38.189381
H   68.588844   70.053566   16.356956
H   93.343468   27.887524   60.370110
H   14.051125   31.498550   98.742577
H   30.841906   39.500572   70.737450
H   50.496750   31.024158   84.665924
H   94.389832    4.391756   78.327675
H   40.850128   64.300133   65.107140
H   75.363945    0.113408   79.762047
H    0.082790   26.215294   73.382309
H   36.790253   70.914604   99.397232
H   94.625885   88.468857   19.941969
H   35.549377   16.406586   43.730759
H   70.337669   45.895889   48.182560
H   49.140793   71.622421   25.948893
H   68.736954   95.936218   13.546509
H   16.725285   46.224953   82.166664
H   64.248207   81.528191   86.285599
H   69.455070   55.991154   87.501556
H   72.001213   58.485893   48.441071
H   39.276707   79.635147   38.267220
H   23.246323   75.552567   31.914953
H   96.695267   31.589062   19.989996
H   46.178879   95.164062   81.067101
H   62.727795   50.992538   11.379157
H   79.434578   66.421661   82.010925
H   67.413574    8.031440   50.218300
H   83.764114   50.686760   42.838470
H   46.127922   26.175728    3.925053
H   40.752754   37.216591   22.766541
H   12.537854   10.957346   15.104897
H   34.219200   45.575050   35.326908
H   97.448082   29.486553   36.054455
H   78.341599   46.139244   87.815979
H   11.549784   61.461315   64.706802
H   25.215683   11.426322   80.275436
H   86.923553   84.115608   78.440659
H   25.108709   73.154633   17.765629
H   76.550087   39.754005   38.151356
H   17.000324   68.366409   93.881790
H   57.316296   93.625069   89.708534
H   53.080189   12.590356   41.380562
H   56.325397   11.959848   68.195610
H   12.093610   99.110008   80.251328
H   59.656643   55.254627   71.058311
H   43.421787   14.208364   70.392441
H   83.376274   14.342741   68.369553
H   42.277176   31.344055    9.362877
H   39.408184   80.938118    2.862157
H   12.587301   99.645706   14.068121
H   95.580704   10.839914   37.818604
H   98.319641   43.091255    9.111868
H    6.173285   24.843094   72.085526
H   17.254562    6.794507   87.882904
H   52.774342   51.538647   17.817345
H   61.260815    3.700538   88.867668
H   41.769104   12.959078   22.506676
H   83.438370   97.362923   23.106056
H   53.595947   50.552490   83.429359
H   96.225121   32.255749   45.497601
H    2.440541   62.235176   41.381115
H   58.395370    4.025772   44.793652
H   69.152031    9.614415   43.169910
H   37.144745   34.101990   59.257423
H   62.999214   29.120977   98.342926
H   70.907448   85.856087   42.838017
H   41.215137   98.092133   74.499107
H    2.016156   38.668652   20.465488
H   94.756706   47.496147    7.521507
H   39.796211   30.934538   23.447060
H   63.723660   10.758101   87.597008
H   13.132170   87.003159   19.521421
H    7.621058   45.447151    3.353140
H   38.724747   48.785984   35.641777
H   20.568222   21.269522   82.218300
H   42.388470   45.937847   76.214714
H   62.124157   54.742081   52.150467
H   19.667339   34.128601   83.244476
H   60.924839   49.931377   16.374245
H   73.935669   48.178520   91.681091
H   14.235287   68.194771   53.586586
H   74.682976   86.292801    0.314003
H   81.872986   76.394165   79.007912
H   89.093941    4.530381   15.027464
H   23.992527   43.036377   81.770729
H   89.910347   60.365490   67.461990
H   97.410652   16.593306   64.196739
H   88.585106   75.871567   43.469315
H    2.839726   10.890607   35.372879
H   28.756916    5.514881   53.082329
H   26.901016   32.153191   84.290222
H   34.807755   60.075054   44.596710
H   12.776515   29.945862   30.276520
H   32.015190   43.790371   10.189480
H   39.227829   37.348736   42.620064
