100
TIME:    7.276, STEP:  7276
H   25.275846   54.776711   92.484634
H   99.532059   99.138496   36.880215
H    4.838572   97.369057   37.931980
H   82.697861   32.880157   41.340595
H   29.999727   55.960827   68.423065
H   15.185811   93.325462   99.312454
H   71.633743   52.648952   59.445827
H   48.007042   18.068829   40.135933
H   74.769905   86.735580   42.088779
H   76.026222   20.857576   92.602577
H   23.459229   59.008198   38.888397
H   78.137100   88.399048   75.015572
H   79.783302   21.578754    2.038107
H   94.817619   82.649208   10.946239
H   68.980293   20.104637    1.000864
H    8.970776   75.343384   29.069689
H   39.014534   63.220211   35.751339
H   56.661610   40.788757   47.302055
H   58.588223   83.590469   46.688908
H   96.491013   51.297085   11.716471
H   32.508560   31.868599   59.757381
H   59.937546   53.742981   99.659698
H   88.597115   35.446983   24.175791
H   43.012764   23.870333   66.695755
H   69.352852    9.136185   90.274818
H   13.300350   11.605461    6.178315
H   34.661076   40.022408   44.336361
H   18.614262   96.058800    7.277366
H   69.380424    9.227856   13.231894
H   79.987595   10.758804   61.809654
H    2.410678   74.508057   33.725044
H   25.168209   51.481335   25.688271
H   82.868904   36.135094   53.276497
H   85.529762    6.920756   65.224945
H   99.875954    8.774696   67.730667
H    5.128189   55.316467   96.551155
H   77.661636   38.073364   81.785736
H   63.259789   25.797619   35.888268
H   37.950367   22.884523   39.213547
H   77.875099   31.028296   10.494634
H   37.988052    5.841910   13.764065
H   87.032219   70.135986   51.411877
H   73.904510    7.134468   27.027073
H   14.747196   34.769920   92.144402
H   25.517040   44.817417   78.736885
H   84.204857    1.695142   12.720800
H   98.578415   20.531857   95.306297
H   56.631710   70.310425   18.775158
H   77.713875   29.851696   54.232887
H   78.500732   41.478809   74.794991
H   43.001987   67.192673   30.125740
H   58.742290   88.579941   96.412506
H   59.800068   64.197449   80.290565
H    8.198891   88.488266   52.885757
H   61.469040   96.238365   62.236607
H    2.658008    4.880077   44.934586
H   57.517445   79.600410   47.995644
H   84.269943   89.758705   26.142794
H   64.118462   46.203991   52.906746
H   78.877403   87.045502   56.663841
H   18.676176   40.203751   47.101158
H   40.678474   60.218094   66.139954
H   68.029366   10.781590   34.533295
H   42.669804   81.398529   29.595951
H   21.118950   79.722717   73.151085
H   54.371216   80.561882   76.397751
H    3.801000   99.913788   18.347536
H   77.762596   33.660210   14.037475
H   19.536224   26.979370    3.893690
H   77.796547   14.100050   86.411316
H   90.985924    0.342660   74.870491
H   74.105949   10.007787   89.374275
H   32.582932   58.410542   75.193909
H   70.032707   88.921387   70.838440
H   12.963788   39.028706   52.972874
H   97.664162   73.897118    6.347496
H   27.599140   96.043648   19.782152
H   73.820038   74.961311   16.265078
H   10.424870   32.146816   98.857079
H   42.702744   12.661094   94.087379
H   53.254585    4.555917   14.859429
H   87.281837   91.656631   78.293648
H   78.098961   28.798498   22.872391
H   50.726025   34.782589   98.867699
H   98.048904   93.764244   42.425713
H   83.833908   76.315063   47.050797
H   53.102375   74.327995   70.491096
H   73.047112   22.840750   20.137100
H    6.680226   89.056572   68.682503
H   23.042337    9.920315   84.316010
H   21.786640   66.313148   87.117599
H   16.649218   42.703781   72.160728
H   51.859074   45.836193   81.668831
H   50.463234   54.599327   17.408258
H   30.795731   97.989120   83.281525
H   94.889328    8.411000   91.633888
H   85.067894   85.234558   18.739475
H   24.232958   46.475262   32.816566
H   62.101189   68.221733   35.596218
H   91.151970   91.920578   96.819611
