100
TIME:    3.407, STEP:  3407
H   86.921051    9.582066   96.026810
H    6.497836   89.466797   92.912582
H   38.317993   19.017143   83.347801
H   82.048462   92.280998   53.414845
H   64.654861   45.843578   73.327057
H   75.190559   97.517036   16.152376
H   74.408424   91.394142   56.884773
H   52.102814   83.350632   95.374031
H   69.877373   58.724243   85.628593
H   81.736916   65.302834   41.105125
H   83.344193    3.330702   11.570345
H   25.804665   94.466156   50.414803
H   26.543480   55.579178   86.500847
H   86.386513   94.574532   16.513828
H   21.942944   65.700333   87.001045
H   64.536392   13.740520   50.230812
H   50.136513    7.318120   83.541000
H   73.947594   29.018394   81.428894
H   98.333534   21.280581   42.855587
H    0.730704   33.464695   48.297020
H   62.100510   17.039398   64.768173
H   89.012756   48.606827   29.140732
H   40.255669   66.913307   34.873016
H    2.494282   77.543304   54.040928
H    7.730779   15.966751   61.701271
H   31.036180   26.092752   69.832146
H   68.290344    0.851072   67.573341
H   45.068844   15.466934   79.389732
H   85.252441   58.201584   96.122261
H   31.631966    6.516496   54.235138
H   50.143116   27.568090   39.827950
H   80.877327   58.377235   83.861015
H   10.341501   19.209888    4.726422
H   22.055302   61.491524   28.218880
H   96.081573    1.376920   32.190750
H   68.781502   52.123447    8.926576
H    6.575001   79.763657   76.923637
H   23.174721   96.598015   62.862667
H    1.260532    7.185438   14.148714
H   42.292011   93.231079    6.089510
H    2.407974   73.084595   22.613142
H   25.419426   64.768326   62.864899
H   40.587322   83.930710   47.564381
H   61.798996   69.872253   13.852695
H   61.122623   97.469818   47.657284
H   34.132648   27.900105   97.002266
H   68.351852   10.121659   58.167862
H   56.421368   30.461523   79.383797
H   64.616867   50.281105    8.566613
H   97.333366   82.596794   45.373768
H   43.284687   40.719955   89.339691
H   70.706604   47.595406   50.399593
H   79.549004   41.763672    4.995571
H   97.797539   51.620300   82.158417
H   69.522812   57.165329   29.325094
H   97.829147    8.950750   76.644485
H   12.241588   91.238960   80.021446
H   72.364006   55.138626   25.799572
H   58.978569   82.722473   49.926495
H   34.191833   89.660995   66.707405
H   74.616737   20.131504   48.758617
H   77.993523   96.230209   41.199112
H    5.361081   74.795464   99.842247
H   76.992729   60.327736   34.640850
H   67.554024   88.732521   12.848096
H   92.047890   72.900795   47.632233
H   14.218430   66.148895   31.553045
H   45.021049   12.386954   29.076902
H   26.706314    4.981026   46.552174
H   99.412659   19.504450   94.558960
H   13.844284   63.587547   21.279232
H   93.044662   38.453537    6.065890
H   84.848419   49.781025   74.393791
H   55.212963   33.777420    0.722347
H   26.437155   33.495457   59.671787
H    6.199069   25.929018   66.680420
H   76.289009   31.250217   51.303944
H   92.047379   27.944769    2.594585
H   24.891165   43.511295   55.695900
H   32.439735   23.400784   27.405014
H   77.549393   64.528641   83.617462
H   96.954803   66.477859    1.885821
H   33.359745   64.126129   54.399784
H   84.546051    3.703060   52.239357
H   86.436310   35.774891   17.481850
H   72.881470   34.198639   78.375565
H   94.700539   55.636269   86.002151
H   10.798574   32.521561   60.310974
H   26.388969    4.476322    0.326046
H   65.114960   69.103958   46.008797
H   63.451080   57.398556    5.411416
H   30.376547   51.730743   98.444374
H    3.849909   29.743902   82.472984
H   76.527687   19.891975   56.534119
H   97.684074   44.551777   94.376915
H   75.325806   61.192451   91.472786
H   92.171021   63.201336   41.250130
H   19.372709   45.246246    1.521468
H   46.411736   51.536533   59.665871
H   50.831875   91.204994   69.533356
