100
TIME:    5.516, STEP:  5516
H   44.297523   16.176571   94.095963
H   48.136238    3.766604   25.906563
H   74.574341   70.747192   58.597263
H   82.402451    5.390411   37.812157
H   45.764740   14.889147   16.144032
H   42.484295   95.232201   25.014013
H   63.874874   33.804485   21.811464
H   86.339569   65.804977    1.732371
H   18.034126   55.952499   52.875198
H   24.102232   95.584953   23.689939
H   87.170151   88.190933    8.420815
H   45.311653    0.179431    0.294684
H   92.079575   28.027466   76.924248
H   81.961739   88.074013   77.010551
H   47.594185   77.316238   85.623444
H   79.737122   29.279617   75.164764
H   80.543159   46.810581   75.531586
H   19.023672   26.428757    8.313105
H   31.182014    9.754924   53.965076
H   43.905342   88.675331   91.887581
H   36.949455    7.081491    7.530991
H   91.204636   51.406555   49.539917
H   12.096923   49.760948   74.530838
H    6.541691    2.815645   97.406570
H   32.299469   48.714027   77.276772
H   21.401281   63.594193   71.717285
H   86.428192   13.182777    9.411459
H   67.116798   13.907921   49.103722
H   31.111382   49.546482   96.428619
H   12.501574   54.318779   21.894604
H   33.144112   16.686195   72.970573
H   14.040712    0.113094   88.620323
H   58.897877   64.905495   94.721794
H   11.165307   68.214256   39.370140
H   43.659073   41.952866   60.612701
H   52.133884   17.465393    2.084444
H    8.855527    2.526718   43.104473
H   36.005695   58.010754   11.691034
H   12.239104   61.232536    9.771109
H   43.647732   95.793480   72.022667
H   58.272018   45.449265   72.300270
H   35.873833   59.420334   61.941395
H   58.753376   96.577759   99.901100
H   27.128628    5.228745   20.061514
H   78.183052   14.259841   28.129812
H    6.922136   68.126083    5.570532
H   84.828415   24.817139   78.414207
H   56.534000   52.182983    9.876700
H   26.268646   75.614197   24.438011
H   41.564877   14.688398   97.868820
H   43.123783   37.109634   11.574525
H   73.199898   51.896343   11.946037
H   23.290058   53.992371   82.508812
H   48.952065   17.202950   75.222496
H    1.602379   42.000965   47.264683
H    0.465881    6.731426    4.849152
H   45.941589   30.385094   80.604897
H   15.322995   55.969643   71.475693
H   25.312124   71.833580   88.016930
H   95.020370   51.767017    6.722420
H    7.653797   22.052845   84.325066
H    3.143998   76.599930   45.773598
H   48.542171   30.881575   55.221771
H   21.813004   71.811127   77.381500
H   51.263206   20.289993    9.249911
H   62.489372   68.056389   72.332298
H   45.009796   39.064800   33.375504
H   99.337746   33.003880   29.899298
H   31.818846   53.441750   14.277938
H   42.138809   25.580528   90.118011
H   46.875237   20.092072   95.978889
H   19.147995   68.459625   60.478653
H   47.338135   45.461456   20.317070
H    8.782192    0.311953   75.411705
H   28.120234   36.504360   19.548340
H   56.062477   61.097977   24.773008
H   67.772881   48.456341   88.601479
H   91.132034   90.042686   19.067133
H   26.025532   37.316494   79.225731
H   29.013103    8.536059   45.712860
H   18.811304   86.347214    9.667701
H   55.201897   80.242920   25.527613
H   66.775444   99.366394   55.260365
H   29.642248   84.174973   59.614719
H   83.745415    3.854976   13.037970
H   24.339695   11.665191   24.831146
H   35.555901    2.294677   86.567627
H   44.741447   63.678860   38.385391
H   70.155869   87.050499   83.077034
H   78.650543   82.332687   21.401609
H   49.760124   71.278534   49.949627
H   86.427040   10.335444   38.628410
H   39.039612   93.026741   45.565327
H   80.367683   47.822460   98.734627
H   61.223244   55.640759   42.837193
H   49.520584   77.911041   82.540237
H   24.768072   84.232735   19.959152
H   27.112188   63.203125   67.764351
H   45.943481   60.627605   83.014290
H   81.830750   37.084919   66.367813
