100
TIME:    4.310, STEP:  4310
H   25.854259   26.772278   95.200089
H   81.444038   38.416687   49.865723
H   53.839684   83.982964   72.751991
H   82.200027   55.078545    3.916518
H   56.566772   18.223009   48.842331
H   61.190029   96.538750    5.579441
H   27.083652   52.370403   27.500620
H   81.128792   61.470654   12.463465
H   47.679909   71.904434   28.787439
H   57.059288   78.268578   76.465698
H   99.349335   39.664600   24.588806
H   91.339043   39.728539   86.138863
H   69.037125    0.955296   96.758789
H   41.674675   91.791237   85.232895
H   32.927711   85.041016   43.594944
H   28.229195   34.760796   75.273376
H   77.522530   67.042435   65.744652
H   93.237755   85.105247   50.120663
H   12.398071   59.165077   90.430328
H   76.397758   14.288469    9.777414
H    8.515198   27.143169   40.262566
H   75.584244   49.805573   52.241959
H   28.199318   59.569267    9.035380
H   18.595833   88.373352   86.974838
H   75.433990   44.355484   68.370155
H   26.898909   99.239166   85.125465
H   90.422722   63.317699   85.485634
H   68.875702   57.615936    9.235965
H    4.887414   40.128628   53.435890
H   66.257767   84.166985   26.020924
H   85.681038    8.541980   68.385460
H   37.893139   33.430923    0.265785
H   73.948708   53.141991   86.075790
H   60.209381   78.737000   90.178337
H   73.636093   33.117271   87.177505
H   47.298359   23.006855    5.878102
H   93.184250   46.694809   48.076405
H   85.851814   80.077370   26.586422
H   63.148342   87.510735   26.640982
H   57.238884    8.695128   77.136780
H   40.693344    4.072031   43.887432
H   44.262894    5.292223    5.289192
H   48.365391   89.345734   12.790041
H    4.136800   85.001251    2.144085
H   82.794762   61.838554   24.929270
H   22.482769   45.123463    0.668433
H   75.406540   59.230431   66.839287
H   56.469593   39.761566   35.256279
H   91.016830   75.494965   72.547943
H   16.271191   96.334145   82.217140
H   43.215794   53.540962   98.860764
H   14.590578   63.804516   91.117920
H   98.274239   46.999573   52.552029
H   76.881493   36.883995   22.004490
H   97.625916   36.306370   37.005512
H   98.959000    8.000021   45.904236
H   69.485916   65.183464   65.904305
H    5.124295   69.861290    2.538675
H   30.197203   20.876987   80.602547
H   74.602509   59.070095   41.023933
H   31.579260   78.136375   78.353920
H   45.944298   87.825211    0.338946
H   66.667549   13.176204   37.920830
H   38.999458   65.241577   10.121677
H    3.392781   16.611084   96.940208
H   36.574898   28.009834    1.024610
H   41.769485   97.371399   75.148849
H   82.644493   64.030777   72.245522
H   71.713211   40.097214   89.916565
H   17.707331   64.924805   92.657501
H   85.170006    2.147099   10.445740
H   18.588223    8.484462   72.180717
H   25.971739    5.117413   51.241798
H   35.330318   76.634941   47.068138
H   69.972298   34.783764   28.125624
H   27.548426   83.803673    5.921777
H   58.275810   52.984913   67.273445
H   34.471966   68.901375   52.466156
H   68.191353   40.858898   65.773796
H   88.154572   74.222984   49.610832
H   95.213669   73.870590   37.587017
H   64.710732   72.375137   26.378283
H   90.489876   79.200012   40.406261
H   46.670746   80.974922   69.764236
H   42.468521   79.292152   29.946152
H   52.099262   67.370125   41.082779
H   55.009880   89.980804   29.061064
H   25.331644   60.225197   50.920799
H   45.129013   54.198082   92.940559
H   85.276779   31.950676   78.288422
H    0.405524    6.159884   24.481119
H   97.192780   19.634964   15.651834
H   61.732857   56.839691   52.303448
H   63.806667   74.667038   17.420191
H   82.072823   63.667137   15.126357
H   49.909927   25.533836   44.831932
H   20.494846   15.022475   89.316666
H   22.686483   52.934753   87.068153
H    3.394769   55.429012   84.029228
H    6.922546   68.029243   82.544388
