100
TIME:    7.057, STEP:  7057
H   40.085770   74.860176   92.685135
H    5.579838   87.272209   23.071285
H    1.073966   81.613060   40.503399
H   82.661102   41.902679   53.345562
H   31.962126   38.407009   74.361221
H   18.582523   93.562721   77.624985
H   83.112396   37.860371   42.319744
H   65.220009   99.122833   60.244461
H   80.153343    7.791615   55.874859
H   82.007820   17.713060   84.027840
H   43.830078   50.196201   59.982719
H   86.494629   77.421646   90.604485
H   93.748161   34.833508   23.801552
H    5.661108   83.324226   94.280235
H   66.320320   39.666801   11.532291
H   17.776924   94.497864   47.248535
H   56.625160   48.735722   15.814904
H   51.978252   51.445358   54.892670
H   55.178043   74.404205   35.151775
H    2.391739   55.947025   96.806023
H   45.504333   53.671356   65.701027
H   38.941803   53.452255   18.309509
H   91.521080   37.228096   30.442266
H   63.361893   21.250460   82.959686
H   77.185738   26.504539   88.657448
H   14.332928   18.060741   26.787458
H   53.546551   49.126801   39.990513
H   37.092659   85.836617    0.038046
H   64.618538   89.358467   23.583567
H   71.589966   16.179405   44.399529
H   93.792168   54.869812   51.051628
H   11.340500   57.531437   45.962212
H   67.443733   52.158424   33.547249
H   76.276665   26.990677   74.451309
H    5.326448   25.356087   54.406204
H   86.090828   38.163651   97.239540
H   56.656456   46.093384   64.529327
H   72.312248   29.805958   20.434692
H   47.195110   27.655600   60.436523
H   98.503258   51.531101   93.264450
H   52.955414   98.327660    8.604937
H    5.488394   69.277176   40.232304
H   72.019806    5.820772   11.209127
H   28.730473   31.094076   70.730949
H   44.513077   53.457317   59.996773
H   87.031914   97.518326   11.831079
H   96.867477    8.621293   93.204384
H   56.618343   68.054794    5.224998
H   71.311226   47.988636   62.969696
H   73.902588   38.145489   90.106544
H   43.017025   88.335449   27.817478
H   48.098515    8.901260   10.788550
H   55.257061   62.927612   93.008980
H   13.269882   92.060516   43.221634
H   78.905899   77.047127   60.373623
H    2.385244    5.110444   52.389862
H   43.634457   85.919518   27.166985
H    0.577300   10.440680   31.784376
H   46.847031   36.949223   69.718712
H   93.330147   70.213486   62.892723
H    4.861195   50.387505   64.175461
H   48.451210   62.256516   76.048019
H   53.161037   25.726250   49.550781
H   27.630840   80.205551   35.542461
H   12.426417   97.213043   52.756840
H   67.824799   91.449059   63.448761
H   21.372313   92.341553    7.773647
H   92.890358   21.134890    3.568008
H    8.620926   42.715317   17.629276
H   73.356895    3.087632   86.873108
H   97.939949   15.243600   77.497047
H   92.130180   17.292587   73.323570
H   46.861908   69.241776   80.807922
H   74.854744    2.782454   83.850922
H    2.414955   38.706234   36.368092
H   92.487907   59.861591   21.083197
H    7.708827   14.998875   15.898291
H   63.531017   89.280388    4.170228
H   99.923347   32.790089   96.414314
H   53.442886   24.591591   12.954253
H   48.967743    2.290093    1.769942
H   70.847481   90.236420   96.616051
H   64.247719   25.136023    2.015598
H   35.660084   16.041767   18.869640
H    8.712187    7.464393   63.655373
H   88.873154   68.271652   31.842834
H   38.475864   90.251076   60.048363
H   69.524986   40.365726   22.407768
H    2.134922    1.250291   70.473640
H   42.405285   18.931141   76.486465
H   12.824268   54.488304   82.492722
H    0.445435   26.232960   67.986977
H   37.820698   39.264790   64.733223
H   29.298630   41.312828    2.641700
H   34.582115   17.606171   78.248962
H   76.800842   17.058786    2.945562
H    2.451221   72.666519   31.335083
H   24.655680   35.639881   37.212540
H   72.533897   67.276039   53.940342
H   77.548012   97.541275   17.916767
