100
TIME:    3.959, STEP:  3959
H   49.590973   58.960846   95.521439
H   91.142738   19.394690   27.732191
H   47.806335   58.730202   76.870628
H   82.141113   69.539299   23.156366
H   59.710648   90.088814   58.359650
H   66.632942   96.919014   70.819756
H   45.478626   28.668156    0.051888
H    8.716705   31.105747   44.692127
H   56.308159    5.651649   50.882740
H   66.651588   73.228737   62.722374
H   31.998489   25.541264   58.397808
H    4.734901   22.134623   11.123320
H   91.430573   22.182571   31.636864
H   59.054359   92.873116   58.522800
H   28.658062   16.393627   60.468502
H   42.342178   65.460442    4.409273
H    5.747869   43.827221   33.791740
H   85.739586    2.174338   62.291798
H    6.931169   44.439209   71.936630
H   85.856163   21.742453   85.879784
H   29.344040   62.087315   49.787918
H   41.933533   49.339615   82.132874
H   32.885674   62.423927   19.078445
H   51.207512   84.163666   13.042774
H   87.988068   72.191650   65.777931
H   28.503008    9.645436   18.093740
H   20.689478   77.907120   78.523048
H   98.493469   41.232437   97.633629
H   97.255005    8.283666   70.028267
H   52.798553   92.854149   98.118195
H   71.868340   77.066277   96.155464
H   15.730704   43.127663   32.759575
H   49.224575   78.823219   54.454941
H   45.379074   10.903984    4.965423
H   82.360748   59.650078   65.802368
H   16.782614   95.485443    7.021176
H   59.517830   59.548813   20.418875
H    0.360715   86.499016    1.818063
H   77.962738   95.158867   60.655678
H   90.299904   41.555054   49.520687
H   64.682129   92.027588   35.618023
H   75.808762   89.539932   88.798859
H   45.342022   87.240891   87.436424
H   26.549688   79.120544   67.823975
H   13.242098   75.688324   94.892639
H   27.011127   38.428669   99.242744
H   72.664352   40.142235   63.470047
H   56.450848   36.146378   13.538368
H   80.755051    4.566039   86.548096
H    8.909595   90.994377    6.767611
H   43.242573   87.427330   95.159882
H   97.533386   96.373367   14.160275
H   90.995659   44.964355   72.937843
H   85.011650   42.612061    6.516753
H   25.572372    5.545129   34.019634
H   98.519821    8.369574   57.853104
H   47.234440   75.311348   32.521385
H   31.260490    3.008639   11.580021
H    2.515570    6.045748    7.548134
H   97.766495   32.090076   51.007210
H    9.437098   94.460960    5.721806
H   58.401970   91.092270   16.221146
H   42.837063   37.128471   61.989952
H   14.896475   63.330482   19.652386
H   89.461861   44.645466   64.253548
H   58.137489   45.459145   80.270782
H   69.930466   85.235077   58.202984
H    6.890549   43.957108   55.465694
H   54.219559   65.317841   11.930166
H   10.596121   47.269432   93.396606
H   96.315498   26.029716   14.656765
H   47.529099   20.133835   46.481594
H   48.857574   22.478352   60.242279
H   43.058788   98.845589   67.923759
H   53.049595   34.282993    1.516578
H   19.249559   61.308846   29.539413
H   26.406149   83.407028   61.066029
H   17.981350   91.851128   33.080711
H   51.359978   41.889896   61.857216
H    5.368328   93.337959   79.849876
H   88.347488   70.239334   16.609194
H   38.373482   70.082840   55.728516
H   68.284584   73.340729    6.975150
H   22.523439   50.939400    1.824136
H   59.558990    1.245840   63.971771
H   60.178539   54.476654   16.708374
H   31.567389   15.501381   12.323933
H   19.682577   88.327263   54.570801
H   37.845078   73.741524   95.811287
H   16.309519   46.392685   65.739700
H   86.041168   87.206093   17.068644
H   71.222336   93.239799    8.963301
H   39.232994   46.307442   25.160074
H   29.880131   53.376259   93.753853
H   88.140984   95.105919    7.061139
H   20.918793   39.394112   62.961433
H   48.355347   94.879677    9.503124
H   21.398405   49.946198   92.686424
H   20.115593   53.915989   13.428627
H   85.119682   77.037758   16.356737
