100
TIME:    0.647, STEP:   647
H   73.568520   62.688118   98.553665
H   83.272728   39.824551   18.812712
H   90.880798   20.451691   15.743027
H   81.585205    5.993006    4.698312
H   89.375931   24.617424   48.162025
H   17.983471    0.509470   42.820293
H   19.061638    5.025276   41.049015
H   69.033371   44.575214   48.789223
H   37.723503   24.087097   59.361946
H   57.159081   25.674999   33.026062
H   40.072662   92.276123   77.426674
H   31.146244   56.121422   46.874550
H    2.107361   22.563171   60.821556
H   23.046055    3.082417    6.476239
H   88.371483   12.231521   19.671255
H   75.509506   55.146633   79.333481
H   72.048714   24.784134   32.262474
H   14.970223   63.237045   77.116013
H   55.339119    5.494208   97.450302
H   75.135689   91.966766   60.327675
H   25.882645   91.806122   39.682762
H   24.386524   44.953903   64.165840
H   77.105644   89.360207   13.838177
H   58.928223   44.441502   59.024025
H    6.443977   34.862545   41.336418
H   43.692318    8.331538   28.530252
H    6.286840   15.581607   12.805128
H   77.948570   86.638962   88.160202
H   25.239624    7.793115   26.587780
H   25.801851   74.826553   34.822781
H   41.552891   80.062492   58.213646
H    6.609186   34.635864   39.368034
H   15.931284   21.144510   56.083824
H    5.439168   14.428897   44.493690
H   64.689629   10.011979   64.124771
H   28.809551   35.310925   18.418097
H   41.854656   80.841164   59.446362
H   37.248558   47.112263   68.097282
H   21.633141   66.696449   80.115173
H    2.253644   51.613758   88.938774
H   91.026733   78.380516   57.585491
H   73.472496   40.895996   33.197178
H   16.813826   67.379807   48.206146
H   38.043579   23.614321   43.992561
H    0.533424    6.364762   11.472868
H   69.688210   75.366997   85.855507
H   42.911793   60.644360   33.151802
H   56.273968    2.044837    8.610579
H   83.942436   78.864365   18.664507
H   39.459446   40.597149   38.412476
H   43.495258    7.179628   60.238743
H   36.575203    3.701803   31.587646
H   22.300394   25.760254   65.294746
H   61.706654   96.646233   60.366718
H   89.251862   15.223932    5.896301
H   94.375778   11.851978   70.601395
H   37.268402   70.878014   17.522667
H   77.881775   15.785927   96.889359
H   41.304008   66.105881   61.814053
H   16.323997   77.518784   45.207359
H    0.513491   48.481659   63.949226
H   75.947845   21.923172   66.082016
H   18.118214   63.033043   89.171242
H   87.467720   45.314003    9.573057
H   58.004318    9.168861   55.815727
H   61.599098   10.108784   84.441551
H   35.659050   70.729248   98.298752
H   35.673180   54.539963   97.132942
H   89.148247    3.297025   19.653156
H   43.492645   80.686180    0.370220
H    1.486255   51.381557   54.387669
H   20.619234   30.052971    3.991420
H   64.806213   86.303383   45.159115
H   15.949979    8.435690   64.755470
H   93.366745   29.564302   50.445118
H   40.954975   49.039871   52.394001
H   25.698029   70.467644    2.482617
H   62.377563    8.414604   50.172497
H   92.564217   51.607273   24.902737
H   67.795425   73.718407   65.181549
H   23.543140   35.975170   18.658333
H   89.868004   48.452957   32.676643
H   58.732792   18.056318   91.523499
H   94.676910   67.526222    4.333809
H   20.826029    8.412837   85.033134
H   36.401508   32.819324   86.712807
H   10.366400   56.310753   54.394573
H   66.370590   53.493553   89.014671
H   69.109810   58.148079   22.907009
H    9.132687   82.662781   47.342190
H   50.500462    8.368345   47.125195
H   26.158403   44.166359   45.850937
H   26.796246   47.016457   68.968468
H    9.762241   52.478874   70.441444
H   45.406178   91.774872   30.953018
H   47.361145   70.181816   34.030693
H   11.246786    4.810488   99.979202
H    9.240720   21.746490   45.683815
H   77.890526   39.639256   90.855812
H   79.422348   62.086445   35.370956
