100
TIME:    0.744, STEP:   744
H   67.008705   53.792702   98.464859
H   80.574501   45.084095   24.931456
H   92.547394   27.430004   14.604088
H   81.601486    1.996359   99.381340
H   88.507111   32.392403   45.531883
H   16.479317    0.403902   52.426899
H   13.977930   11.575327   48.634541
H   61.409363   52.966656   39.882706
H   35.339058   14.760946   53.255783
H   54.508217   27.067406   36.824745
H   31.049957   96.179153   68.082787
H   27.443768   60.983559   39.969872
H   95.936981   16.694565   51.180908
H   18.243122    2.783344   13.858250
H   89.551125    3.567510   15.008522
H   71.609436   46.661945   71.281723
H   64.250053   31.198898   41.094246
H   17.043015   58.519958   73.753220
H   56.849564    9.563693    2.560753
H   72.509987   89.933105   66.945213
H   20.126526   82.149933   37.050400
H   33.687489   45.081932   55.906139
H   75.810555   88.571312   11.062799
H   49.915878   45.604862   51.819626
H    2.974881   27.169712   42.052048
H   43.247547    5.441371   19.438353
H   97.922485   11.549253   14.730001
H   69.763603   91.166595   91.366104
H   27.348770   16.593607   22.002792
H   29.520979   72.425827   42.534115
H   45.368595   88.761055   50.537834
H   12.733686   31.956139   30.388252
H   22.763809   14.047789   64.822350
H    9.537757    5.539586   40.407127
H   62.278542    2.679366   70.031860
H   37.243317   42.930492   18.084333
H   51.157841   77.288918   67.089607
H   33.239700   45.336880   74.942757
H   17.272388   64.625786   70.818649
H   93.117073   42.532589   96.570183
H   84.397354   81.709267   59.871510
H   64.754692   45.249718   37.754414
H   17.649343   67.961487   55.212212
H   31.849360   25.239843   53.477058
H   92.119072    2.537754   19.773653
H   68.449364   77.190483   86.235893
H   43.936024   65.876999   33.980659
H   56.279148    3.043582   14.612395
H   86.778313   70.830368   14.795091
H   41.493847   42.073551   31.628426
H   43.487858   97.814751   61.261494
H   41.289330   94.701111   25.219505
H   24.312593   26.322693   59.660904
H   59.460598   95.064003   64.647171
H   81.530167   23.727491    6.719423
H   94.497147   11.750036   67.299286
H   43.417488   68.079140   26.748146
H   70.658875    6.625587   94.390945
H   48.953918   70.204285   54.366917
H    9.923118   84.974060   42.448448
H    6.632425   43.971046   56.386642
H   72.505127   21.020309   61.693123
H   24.697639   56.418465   82.516701
H   94.128181   45.841660    6.939215
H   61.854805    1.421528   64.849464
H   55.640205    5.286662   90.176949
H   27.876474   74.083160    2.981999
H   28.972755   60.087387    1.770103
H   93.982262   96.327240   13.569269
H   45.457481   85.564598    0.166245
H   98.406013   44.781040   53.224308
H   12.621208   26.833748   11.093374
H   58.481735   81.504890   42.671803
H   13.815116    2.297236   58.990471
H   98.043869   29.702322   57.798267
H   43.248394   55.257042   45.867489
H   34.505116   62.060661    4.198940
H   66.934799    2.071922   55.529728
H   97.213219   51.323093   25.984322
H   63.038376   68.435921   56.824890
H   25.441372   36.978680   24.455524
H   97.145668   49.086441   24.565281
H   64.870140   19.675180    0.762286
H    1.349336   75.826637   95.473915
H   16.102652    2.345329   75.630043
H   34.168774   36.382671   93.448753
H   16.844809   49.258064   59.019894
H   67.932098   45.727455   88.006721
H   71.122749   52.747185   22.113304
H    0.556617   78.670944   50.810070
H   54.470097   13.606058   49.173656
H   33.335423   51.461784   47.698845
H   33.019768   49.922638   76.472588
H   19.137827   58.363022   76.982018
H   43.729221   83.086670   33.181877
H   55.372940   66.351311   29.020546
H    3.547478   10.376969   94.400696
H    9.596869   22.572388   44.131927
H   73.269646   40.057384   82.730049
H   85.446365   59.594692   26.028311
