100
TIME:    3.524, STEP:  3524
H   79.008698   98.852661   95.919693
H    3.243162   95.809891    0.292917
H   40.329109   27.434284   81.974922
H   82.068100   87.460747   47.001232
H   63.606903   55.221645   70.154617
H   73.376717   97.390282   27.739279
H   68.275993   99.293999   66.034325
H   42.906845   93.473160   84.632011
H   67.001289   47.475204   78.264320
H   78.539482   66.982780   45.687042
H   72.461136    8.038361    0.300343
H   21.338791    0.330785   42.086479
H   19.101101   48.500549   74.871544
H   80.593285   94.213905   25.417904
H   23.366257   55.249313   81.377419
H   59.832184    3.507082   40.518898
H   40.728096   15.056632   94.191971
H   76.446983   23.328712   77.372742
H    0.156257   26.189203   49.019260
H   97.578117   30.980295   56.262932
H   55.157562    5.391375   61.592842
H    0.229660   48.762146   19.177094
H   38.693550   65.961754   31.525555
H   91.623695   78.946533   45.351086
H    3.546316    6.687767   62.565346
H   30.499258   22.606550   58.865601
H   58.201221   95.987869   69.894203
H   35.197147   20.928101   83.256645
H   87.796463   68.816849   90.591469
H   36.118332    3.620551   63.536438
H   54.748241   38.059467   30.571281
H   88.264809   55.144989   73.029732
H   18.582945   10.649925   15.266706
H   26.999184   50.769142   23.290173
H   93.173355   92.532616   39.314903
H   78.955803   61.314953    8.522656
H   17.796799   75.478989   86.142815
H   18.339294   94.457466   71.119453
H   96.322266    4.636507    2.810812
H   31.272350   82.278397   15.294851
H   94.411819   77.099686   25.369612
H   14.904137   70.018829   68.361771
H   41.595112   84.632324   56.014996
H   54.327606   71.832489   25.292311
H   50.974209   92.853088   57.669125
H   32.623196   30.131702   97.477150
H   69.265915   16.484837   59.291695
H   56.427616   31.666140   86.623100
H   68.037460   40.591507    3.899228
H   99.786339   84.376717   37.190945
H   43.275761   29.424397   90.573318
H   76.392715   36.738235   42.718433
H   81.975197   42.442078   98.200447
H   95.087486   49.710945   87.321442
H   60.207230   67.419373   30.319941
H   97.975540    8.827566   72.661530
H   19.658640   87.862999   91.149086
H   63.651848   44.089539   22.785576
H   68.206184   87.665909   40.943867
H   26.471397   98.653442   63.379646
H   81.997078   14.690476   39.636738
H   73.840965   95.141190   35.904869
H   13.304231   66.811699   91.819206
H   85.026482   60.964188   31.463947
H   72.197533   79.388374   23.744097
H   84.860359   67.084358   54.550186
H    4.831028   70.194336   37.201702
H   36.939095   19.078623   34.670177
H   32.537926   96.574173   39.213787
H    1.783135   25.389174   94.312592
H   10.128897   55.626991   19.875557
H   83.397018   34.570557   14.632102
H   77.219925   43.994045   71.394524
H   52.636806   26.373318   93.770470
H   32.078182   33.662380   68.541054
H    8.965207   33.427719   58.807934
H   86.911415   21.109390   53.373081
H   97.544250   20.294405    9.056257
H   30.501402   43.167629   57.001831
H   26.701851   17.028679   17.325333
H   79.838120   65.739059   90.610397
H    5.733476   67.241959   92.102417
H   40.762402   66.079224   65.543488
H   92.595871   13.715124   41.553574
H   80.739487   28.456142    6.140171
H   70.189270   38.496696   86.500366
H    2.514719   47.129417   91.581146
H   12.681597   23.154205   59.094307
H   28.817394   97.962029   99.369026
H   54.770260   64.290848   50.190811
H   68.239197   63.715763    7.882241
H   39.034172   60.529488    0.674099
H   11.349639   33.254654   91.520775
H   87.835640   26.988903   64.422417
H   95.661354   34.071301   97.065544
H   84.989517   56.572151   85.429619
H   82.884003   69.915764   34.521416
H   19.802069   46.242432   99.649239
H   40.838097   52.040874   49.865585
H   58.098850   88.202156   58.262436
