100
TIME:    9.970, STEP:  9970
H   43.091217    7.725580   90.018204
H   25.129017   45.124592    6.744731
H   51.145985   91.186058    6.306782
H   83.150040   21.886873   93.672501
H    5.859537   71.896454   95.379005
H   73.415283   90.406853   66.109184
H   30.442783   34.560562   70.120163
H   36.263962   51.132908   92.781059
H    8.546242   27.717037   72.512505
H    2.440272   59.539433   98.086555
H   72.869843   67.405701   79.385551
H   75.315254   23.434322   83.253822
H    7.995778   58.517075   34.316933
H   61.426682   74.345558   15.961025
H    1.701865   79.463287   71.441185
H    0.649808   39.716354    5.443390
H   22.379036   41.408310   80.996780
H   14.269897    9.698696   53.916359
H    0.555985   96.605560   88.632645
H   23.907093   94.088593   95.136589
H   72.642288   63.674114   86.638916
H   18.213959   57.319305   70.240692
H   52.627960   13.540512   47.132690
H   92.701004   56.098358   66.616623
H   73.000229   95.488968   10.165634
H    0.594790   32.187912   52.660954
H    2.354330   28.035219   97.783249
H   91.302193   21.805607   96.326256
H   27.959286   53.648258   85.885208
H   83.287498   44.082138   75.975136
H    8.437020   16.085274   20.584427
H   95.269333   77.049622   76.291252
H   72.631752   39.029327   95.973289
H   99.357712   60.031670   51.730782
H   32.830147    4.801074   31.636152
H   39.312000   66.329010   88.083076
H   36.051888   39.412849   94.062454
H   51.912106   76.500923   25.996422
H   24.234440   64.187462   78.145546
H   24.131222   78.825043   22.453131
H   53.872360   98.279083   77.233360
H   59.996056   80.706558   88.934807
H   97.088959   23.297047   21.616360
H   42.734432   79.995277   55.545925
H   91.801727   38.491917    9.255012
H   49.436798   53.073315   23.665586
H   19.639812   67.045410   21.174269
H   56.796139   98.057770   85.464294
H   56.460556    6.740152   46.732391
H   35.052917   82.492485   86.430763
H   46.796772    7.402969   52.413681
H   89.670700   38.597076   19.567217
H   15.670519   79.818176   23.829914
H   45.806900   44.535591   71.764961
H   46.968910   32.327690   85.134888
H    6.013382    2.046251   53.224457
H   28.306786    1.866005    4.217360
H   83.669388   35.343941   56.751122
H   76.594368   60.041107   46.088390
H    1.102646   94.114899   80.040077
H   88.619385   14.920347   37.063641
H   45.063133   35.142715   44.245102
H   50.954922   26.998156   49.820999
H   27.661777   96.073792   56.456696
H   28.048645   64.556557   24.031290
H   88.877289   46.635307   35.689068
H   87.656349   93.051392   48.414135
H   91.669533   87.731941   42.826263
H   53.806816   33.405716   34.931950
H   32.510483   49.410473   80.697418
H    5.430449   17.036457   42.560249
H   52.261200   20.558006   86.842499
H   56.929932   25.153223    6.116497
H   10.733517   18.419388   10.770384
H   42.735115   42.995548   57.233677
H   61.357933   46.556759   25.075146
H   72.271431   62.872501   67.565086
H    0.380720   98.816154   65.057762
H   39.610649   24.233685   28.923502
H   10.587722   65.906075   61.996834
H    5.994529   32.426586   75.876762
H   89.436577    9.136743   52.912918
H   48.498314   73.851967   79.435669
H   36.069263   65.313797   52.811264
H   66.875900   25.236893   81.274658
H   21.830303   75.270012   34.130390
H   33.028675   78.451622   98.951149
H   16.372562    7.268353   92.210449
H   62.590580   39.058159   46.649055
H   84.857086   99.081650   80.619232
H   32.036797   11.781669   44.010277
H   15.977938   45.318466   23.494493
H   24.549595   26.664251   89.999992
H    6.843706   17.739895    5.175696
H   84.214920   56.678612   45.184944
H   17.402756    2.028527   52.485504
H   71.230675   39.835464   63.804214
H   19.032900   79.775604   78.725914
H   33.765068   79.855064    9.944958
H   58.485207   22.789192   37.298328
