100
TIME:    0.666, STEP:   666
H   72.283607   60.945717   98.536270
H   82.744209   40.854771   20.011229
H   91.207245   21.818577   15.519936
H   81.588394    5.210157    3.656837
H   89.205750   26.140358   47.646843
H   17.688843    0.488791   44.702000
H   18.065845    6.308286   42.534840
H   67.540009   46.218899   47.044647
H   37.256447   22.260330   58.165894
H   56.639839   25.947739   33.770134
H   38.305328   93.040634   75.596428
H   30.421017   57.073799   45.522087
H    0.898792   21.413651   58.933182
H   22.105274    3.023836    7.922200
H   88.602547   10.534455   18.757944
H   74.745575   53.484684   77.756332
H   70.521141   26.040634   33.992409
H   15.376216   62.313080   76.457321
H   55.634979    6.291317   98.451385
H   74.621376   91.568420   61.623894
H   24.755157   89.914703   39.167145
H   26.208363   44.978981   62.547970
H   76.851967   89.205681   13.294546
H   57.162918   44.669376   57.612854
H    5.764466   33.355701   41.476593
H   43.605198    7.765431   26.749365
H    4.648447   14.791764   13.182165
H   76.345329   87.525818   88.788162
H   25.652756    9.516925   25.689690
H   26.530340   74.356308   36.333248
H   42.300297   81.766335   56.710136
H    7.808845   34.110970   37.609108
H   17.269615   19.754431   57.795494
H    6.241985   12.687692   43.693230
H   64.217354    8.575694   65.281830
H   30.461571   36.803417   18.352720
H   43.676929   80.145363   60.943493
H   36.463318   46.764507   69.438148
H   20.778973   66.290855   78.294205
H    0.464068   49.834972   90.433586
H   89.728195   79.032539   58.033268
H   71.764885   41.748787   34.089832
H   16.977484   67.493744   49.578468
H   36.830276   23.932722   45.850349
H   98.885277    5.615146   13.098795
H   69.445549   75.724174   85.930016
H   43.112415   61.669361   33.314156
H   56.274982    2.240467    9.786193
H   84.497917   77.290695   17.906591
H   39.857937   40.886341   37.083641
H   43.493809    5.345251   60.439075
H   37.498589    1.938727   30.340279
H   22.694536   25.870422   64.191322
H   61.266705   96.336311   61.205158
H   87.739365   16.889578    6.057531
H   94.399551   11.832010   69.954590
H   38.472862   70.329781   19.329720
H   76.466980   13.991631   96.399979
H   42.802444   66.908661   60.355335
H   15.070224   78.979095   44.666954
H    1.712048   47.598137   62.467896
H   75.273499   21.746323   65.222412
H   19.406967   61.737404   87.867775
H   88.772346   45.417358    9.057150
H   58.758537    7.651331   57.585236
H   60.431892    9.164234   85.564980
H   34.134666   71.386200   99.216049
H   34.360725   55.626572   98.041252
H   90.095116    1.931814   18.461452
H   43.877510   81.641747    0.330266
H    0.882879   50.088673   54.159794
H   19.052595   29.422401    5.382533
H   63.567398   85.363472   44.671909
H   15.531810    7.233307   63.626244
H   94.282883   29.591337   51.885426
H   41.404202   50.257668   51.115612
H   27.423107   68.820915    2.818803
H   63.270218    7.172225   51.221851
H   93.474846   51.551609   25.114594
H   66.863632   72.683693   63.544678
H   23.914959   36.171734   19.793865
H   91.293526   48.577042   31.087795
H   59.934933   18.373415   93.333160
H   95.983856   69.152077    2.598366
H   19.900831    7.224359   83.191292
H   35.964169   33.517300   88.032219
H   11.635366   54.929298   55.300564
H   66.676453   51.972359   88.817238
H   69.504097   57.090172   22.751541
H    7.452835   81.880875   48.021465
H   51.278019    9.394289   47.526440
H   27.564211   45.595360   46.212898
H   28.015274   47.585709   70.438347
H   11.598684   53.631439   71.722588
H   45.077702   90.073059   31.389561
H   48.930466   69.431511   33.049324
H    9.738674    5.900830   98.886505
H    9.310481   21.908264   45.379837
H   76.985405   39.721157   89.264168
H   80.602310   61.598370   33.541000
