100
TIME:    3.307, STEP:  3307
H   93.683746   18.752464   96.118362
H    9.279652   84.045349   86.604599
H   36.599091   11.823005   84.521202
H   82.031677   96.400871   58.896564
H   65.550552   37.828136   76.038544
H   76.740852   97.625374    6.248854
H   79.649818   84.642128   49.064644
H   59.962616   74.698898    4.555532
H   72.335564   68.338806   91.922844
H   84.469765   63.866982   37.188957
H   92.645950   99.307068   21.202837
H   29.621651   89.453644   57.533028
H   32.904434   61.629288   96.440422
H   91.337990   94.882759    8.903507
H   20.726437   74.632828   91.807564
H   68.557083   22.486908   58.531593
H   58.177895    0.704027   74.437607
H   71.811363   33.881371   84.895691
H   96.775612   17.085176   37.587490
H    3.424644   35.587955   41.488548
H   68.034653   26.994995   67.482712
H   79.425659   48.474075   37.656662
H   41.590813   67.726601   37.734039
H   11.785416   76.343964   61.468143
H   11.307248   23.897507   60.962746
H   31.495089   29.072412   79.205620
H   76.913086    5.008073   65.589699
H   53.506191   10.799271   76.084679
H   83.078064   49.128708    0.849375
H   27.797813    8.991662   46.285309
H   46.207111   18.600882   47.739632
H   74.563240   61.139839   93.118523
H    3.297472   26.526096   95.717628
H   17.829762   70.655952   32.431488
H   98.567230    8.936315   26.101730
H   60.085522   44.267460    9.271806
H   96.983650   83.425766   69.043999
H   27.307564   98.427544   55.806240
H    5.481750    9.364012   23.839190
H   51.710499    2.592502   98.221779
H    9.242083   69.652893   20.257185
H   34.406853   60.280083   58.166718
H   39.725964   83.331039   40.341633
H   68.184799   68.196838    4.075244
H   69.796989    1.415525   39.100155
H   35.422779   25.992756   96.596382
H   67.570602    4.683104   57.207321
H   56.416027   29.431936   73.196358
H   61.693886   58.562813   12.555833
H   95.236809   81.075493   52.367634
H   43.292316   50.374191   88.285309
H   65.846680   56.875038   56.964687
H   77.475334   41.183838   10.803448
H    0.113788   53.252228   77.745575
H   77.484848   48.401443   28.474798
H   97.704025    9.056036   80.048721
H    5.902133   94.124397   70.510643
H   79.810295   64.582291   28.375637
H   51.092064   78.497314   57.603954
H   40.790497   81.975143   69.551643
H   68.308754   24.782001   56.555096
H   81.542717   97.160995   45.724106
H   98.572121   81.619194    6.699570
H   70.126274   59.783760   37.356152
H   63.585133   96.718971    3.535275
H   98.191078   77.872108   41.719452
H   22.241882   62.691540   26.724783
H   51.928703    6.667601   24.296324
H   21.722031   12.166389   52.824299
H   97.386292   14.474714   94.769531
H   17.019890   70.391441   22.478954
H    1.290430   41.772324   98.744385
H   91.368500   54.727161   76.957268
H   57.414806   40.106003    6.664141
H   21.615759   33.352787   52.091221
H    3.834818   19.519945   73.409546
H   67.210030   39.917938   49.535450
H   87.349197   34.483685   97.072144
H   20.096090   43.805027   54.579720
H   37.343910   28.847027   36.020126
H   75.593216   63.494091   77.640594
H   89.452057   65.824783   10.248007
H   27.032690   62.456818   44.875248
H   77.665863   95.145844   61.372505
H   91.305389   42.030231   27.175758
H   75.182495   30.525238   71.431290
H   88.021767   62.907082   81.233780
H    9.189154   40.527847   61.350861
H   24.313393   10.044064    1.144181
H   73.955902   73.217728   42.434425
H   59.358673   51.999233    3.299584
H   22.977179   44.210449   96.538551
H   97.439835   26.743261   74.739830
H   66.862770   13.826225   49.792023
H   99.412895   53.509449   92.078941
H   67.066223   65.141426   96.637886
H    0.108638   57.462505   47.001167
H   19.005735   44.394806    3.121550
H   51.175529   51.105473   68.041817
H   44.620785   93.771523   79.166229
