100
TIME:    4.972, STEP:  4972
H   81.086586   66.063606   94.594009
H   63.160652   74.290070   91.606079
H   65.219360   31.609028   64.984077
H   82.311142   27.804596   67.632210
H   50.637299   71.285233   30.892445
H   50.922039   95.821556   71.140678
H   92.388039   97.070053   79.269882
H   29.096901   18.743542   51.682026
H   31.406685    8.255873   87.117271
H   38.967827   87.773918    2.386101
H   37.771698   66.301773   60.820431
H   66.075645   72.911369   39.016212
H   26.793411   60.923714   30.979004
H    8.897405   89.750771   35.611710
H   40.978462   25.908159   11.772179
H    1.609819   76.859695   20.321667
H   24.288582   10.830695   26.009123
H    7.390868   52.896236   27.170404
H   22.708992   86.934479   25.306627
H   58.560371    0.229976   54.849495
H   69.231194   61.239929   22.296005
H   39.050827   50.684387   95.866577
H   19.360664   54.185265   90.094803
H   57.088253   96.307831   37.809029
H   51.756500   91.854660   73.259193
H   23.881140   79.672913   22.874006
H   33.337456   35.796658   98.617348
H   13.019233   88.515869   31.120081
H   19.282768    0.191058   22.142803
H   91.642380   67.782646   78.648506
H   11.734004   67.903549   16.010124
H   79.692390   15.142426   38.981087
H   20.577938    4.707551   45.713982
H   88.179932   18.068481   62.288597
H   57.181046   83.074936   27.488434
H    4.845478   74.856926    3.795368
H   56.677826   22.450649    0.239604
H   58.488361   67.965889   73.300972
H   35.203045   73.086052   62.488495
H   94.886803   46.721603   29.220598
H   95.451218   26.784956   59.483868
H   84.765434   35.003586   36.387440
H   54.067585   93.315552   60.605560
H   61.863247   96.097656   66.871140
H   25.371874   35.721596   81.577782
H   13.941799   57.750111    3.359555
H   80.578415   95.231529   73.193016
H   56.504948   46.579956   76.217125
H   10.368500   20.669003   46.139679
H   30.155453    6.408369   35.915764
H   43.165287   89.628677    5.839722
H   46.761909    2.374509   47.660149
H   12.005513   50.838074   14.102537
H   61.548500   26.080635   51.216637
H   44.917236   94.325935   42.636997
H   99.787308    7.303661   23.368195
H   11.455857   46.081871   28.866127
H   55.829971    7.343402   85.487411
H   82.407646   48.848541   29.779522
H   30.918133    9.951833   22.195076
H   73.338135   47.350292   26.739830
H   22.449659   81.663406   70.388489
H   11.608991   68.002731   92.525482
H   84.458168   68.847748   92.148590
H   29.668947   63.739872   58.589863
H   95.908318   95.100334   40.166771
H   88.655304   20.258083    7.109880
H   36.915825    1.890628    3.892951
H    4.704714   92.530128   48.398247
H   31.119356   98.218750   91.263519
H   64.149162   57.105255    2.503956
H   64.001862   86.513824   20.647945
H   82.807373   72.369728   34.266533
H   20.756069   34.741245    7.734569
H    1.892277   35.728237   78.309174
H   43.200417   26.230890   61.375713
H   18.379972   95.606148   78.980873
H   65.573929   25.613117   89.024422
H   99.939796   38.914394   73.157860
H   55.688934   38.167759   92.579071
H    8.166315   80.719284   77.153877
H   14.380031   76.698502   71.021873
H   32.364891   90.268738    3.451291
H   92.215668   37.624191    9.302175
H   10.233733   37.883659   65.772774
H   36.861423   91.683998   87.053879
H   99.223351   41.848022   60.627686
H   35.986954    7.224550   44.036751
H   58.866806   17.339376   87.526253
H   26.746752    4.712471    1.955543
H   27.497429   41.905193   38.461346
H   46.176548   69.421249   28.264883
H    4.168342   76.707161    3.496959
H   27.790375   14.820806   62.053692
H   70.628029    4.367387   30.336491
H    4.588415   99.393463   10.638771
H   67.948387   53.013500   51.244797
H   25.115850   58.571289   76.471870
H   71.858521   58.282635   28.579865
H   48.040226   51.042683   18.771708
