100
TIME:    3.072, STEP:  3072
H    9.575701   40.303215   96.333511
H   15.817041   71.304947   71.780838
H   32.559669   94.916489   87.278694
H   81.992233    6.083132   71.777527
H   67.655426   18.991848   82.410538
H   80.384041   97.879967   82.976555
H   91.967094   68.774895   30.687340
H   78.433151   54.368176   26.132938
H   78.112312   90.933029    6.714939
H   90.891960   60.492729   27.985964
H   14.505066   89.851273   43.838726
H   38.591568   77.674240   74.260857
H   47.851906   75.847046   19.797413
H    2.973853   95.607094   91.020180
H   17.867645   95.624191    3.103212
H   78.005707   43.040802   78.038429
H   77.075142   85.159576   53.044628
H   66.791222   45.309364   93.042664
H   93.114494    7.225995   25.207460
H    9.755402   40.577618   25.488642
H   81.979889   50.390648   73.861877
H   56.895981   48.162109   57.669098
H   44.728401   69.637840   44.457443
H   33.619446   73.525513   78.920570
H   19.711754   42.534782   59.227211
H   32.573048   36.074093    1.233208
H   97.176529   14.777110   60.926960
H   73.334801   99.830299   68.317802
H   77.968277   27.807627   11.957453
H   18.787556   14.808303   27.603420
H   36.957500   97.528168   66.332085
H   59.725136   67.632957   14.873604
H   86.745087   43.719795   74.546974
H    7.900107   92.192360   42.331924
H    4.408970   26.700623   11.792534
H   39.653072   25.806189   10.079942
H   74.443214   92.031723   50.526852
H   37.019745    2.727963   39.223637
H   15.401517   14.483660   46.612381
H   73.844742   24.592649   79.733315
H   25.302053   61.588932   14.720790
H   55.527306   49.732407   47.125992
H   37.701771   81.921814   23.367718
H   83.191437   64.259613   81.097496
H   90.182350   10.687071   18.990320
H   38.454586   21.510487   95.642555
H   65.734665   91.902985   54.950050
H   56.403477   27.012407   58.655876
H   54.825256   78.026115   21.930216
H   90.309898   77.500435   68.803741
H   43.310246   73.061646   85.807510
H   54.425861   78.680969   72.391685
H   72.602211   39.821228   24.451958
H    5.555264   57.087257   67.375397
H   96.195633   27.806313   26.476603
H   97.409988    9.303427   88.048676
H   91.003609    0.905219   48.160255
H   97.309074   86.774902   34.429031
H   32.558777   68.568192   75.644829
H   56.297356   63.913380   76.235603
H   53.484993   35.709789   74.877884
H   89.883324   99.348343   56.357841
H   82.618828   97.654961   22.814224
H   53.988991   58.505417   43.737110
H   54.256634   15.488147   81.650902
H   12.627279   89.554695   27.824688
H   41.096565   54.567875   15.378367
H   68.161690   93.227600   13.061965
H   10.009193   29.051994   67.563362
H   92.624329    2.654623   95.264374
H   24.482868   86.380592   25.298302
H   20.667002   49.571472   81.539642
H    6.691012   66.350945   82.981438
H   62.587574   54.978172   20.630455
H   10.285705   33.017513   34.276890
H   98.279381    4.458571   89.222992
H   45.872906   60.287163   45.379490
H   76.308472   49.850697   84.095078
H    8.827380   44.495296   51.956696
H   48.868721   41.646374   56.265640
H   70.996201   61.062908   63.594959
H   71.820602   64.290054   29.899172
H   12.164223   58.533936   22.492588
H   61.497700   75.036591   82.836975
H    2.747862   56.730282   49.956444
H   80.589905   21.893284   55.112240
H   72.326653   79.993492   70.028107
H    5.407015   59.342621   63.794594
H   19.435787   23.128012    3.066825
H   94.732117   82.885086   34.034653
H   49.741516   39.310825   98.336746
H    5.588395   26.537760   92.059868
H   82.375824   19.691755   56.566917
H   44.148647   99.571648   33.948097
H    3.476229   74.559082   86.678703
H   47.656204   74.421516    8.776192
H   18.761517   43.976254   60.516106
H   18.143347   42.393921    6.881725
H   62.370445   50.092480   87.724358
H   30.024721   99.802864    1.803585
