100
TIME:    3.595, STEP:  3595
H   74.207184   92.341583   95.854691
H    1.268097   99.659119    4.771471
H   41.549530   32.542152   81.141808
H   82.080017   84.535637   43.109211
H   62.970963   60.912609   68.229462
H   72.276009   97.313362   34.770752
H   64.554604    4.088327   71.586617
H   37.326385   99.615891   78.113350
H   65.255974   40.648865   73.795403
H   76.599159   68.002235   48.467522
H   65.856888   10.895082   93.461021
H   18.628731    3.889539   37.032539
H   14.584828   44.204971   67.814445
H   77.077736   93.995064   30.821232
H   24.229977   48.907242   77.964790
H   56.977493   97.297112   34.625343
H   35.018715   19.752544    0.655382
H   77.963707   19.875999   74.911316
H    1.262056   29.167940   52.759609
H   95.664879   29.472509   61.096947
H   50.944321   98.323059   59.666061
H    7.036499   48.856400   13.130783
H   37.745598   65.384315   29.493958
H   85.027031   79.798065   40.077763
H    1.007050    1.056931   63.089699
H   30.173433   20.490992   52.210976
H   52.078533   93.036758   71.302589
H   29.206503   24.242142   85.603233
H   89.340271   75.258591   87.235176
H   38.840851    1.863184   69.180817
H   57.542805   44.425915   24.953987
H   92.747810   53.183540   66.456902
H   23.584070    5.455384   21.662947
H   29.999317   44.262398   20.299248
H   91.408539   87.165581   43.638107
H   85.129951   66.892426    8.277543
H   24.606617   72.878891   91.737358
H   15.404948   93.158501   76.130058
H   93.325653    3.089720   95.930397
H   24.584953   75.631897   20.880999
H   89.559387   79.536194   27.042341
H    8.523064   73.205032   71.697479
H   42.206676   85.058090   61.143147
H   49.793686   73.022034   32.234291
H   44.815769   90.051483   63.744686
H   31.707203   31.485920   97.765327
H   69.820602   20.346252   59.973679
H   56.431408   32.397293   91.016182
H   70.113205   34.711494    1.066916
H    1.275348   85.456841   32.225300
H   43.270344   22.569618   91.321930
H   79.843262   30.149773   38.057217
H   83.447502   42.853760   94.077126
H   93.442924   48.552277   90.454559
H   54.554184   73.642273   30.923651
H   98.064377    8.752813   70.244522
H   24.159517   85.814339   97.901756
H   58.364983   37.384537   20.956570
H   73.806145   90.665771   35.492870
H   21.786346    4.110800   61.360237
H   86.475746   11.388759   34.101238
H   71.321037   94.480331   32.692123
H   18.124434   61.966850   86.950523
H   89.901665   61.350410   29.536083
H   75.015388   73.717995   30.356199
H   80.498695   63.554726   58.748260
H   99.134445   72.649261   40.629498
H   32.034660   23.139380   38.064388
H   36.076767   91.472565   34.760578
H    3.221551   28.960245   94.163086
H    7.874260   50.796227   19.023754
H   77.542465   32.214218   19.830402
H   72.590668   40.482288   69.574455
H   51.073498   21.880295   89.551811
H   35.501102   33.763676   73.923256
H   10.643760   37.978432   54.030796
H   93.357491   14.955555   54.628712
H    0.879963   15.651876   12.977394
H   33.905907   42.959080   57.794319
H   23.219887   13.161846   11.208710
H   81.227005   66.473587   94.853973
H   11.060832   67.705643   86.165527
H   45.254612   67.264435   72.305908
H   97.480804   19.790905   35.069038
H   77.282440   24.014851   99.257599
H   68.555542   41.104919   91.430801
H    7.256659   41.967140   94.966690
H   13.824286   17.469742   58.355988
H   30.291054   94.008797   98.788338
H   48.492649   61.369583   52.728615
H   71.144806   67.549782    9.381631
H   44.287994   65.868706    2.027049
H   15.900758   35.385109   97.011314
H   94.697731   31.295586   69.209846
H   94.433891   27.711353   98.697105
H   90.853821   53.768379   81.762398
H   77.248291   73.990334   30.438074
H   20.062620   46.846954   98.512779
H   37.455803   52.346928   43.918404
H   62.508724   86.379921   51.422554
