100
TIME:    6.474, STEP:  6474
H   79.512283   28.323450   93.218887
H   21.679230   55.681789   86.312050
H   91.048737   39.669014   47.348774
H   82.563248   65.921539   85.301025
H   37.184021   91.677078   90.169189
H   27.625179   94.194328   19.887829
H   13.668378   98.492195   96.728310
H   11.042664   48.684582   13.772107
H   94.484596   63.844681   92.571327
H   97.931435    9.341158   61.201023
H   98.059326   26.737783   16.141399
H    8.744926   48.198704   32.102104
H   30.947433   70.094872   81.732353
H   34.526588   85.121193   49.915096
H   59.239204   91.743248   39.567638
H   41.218903   45.489357   95.642090
H    3.506475   10.176387   62.742104
H   39.510685   79.814301   75.102089
H   46.099804   49.946892    4.438704
H   18.097404   68.327187   57.112633
H   80.100388   11.709675   81.526787
H   83.049026   52.678314   67.957382
H   99.304970   41.969597   47.122238
H   17.529667   14.276094   26.257570
H   98.037666   72.740005   84.351845
H   17.034178   35.271973   81.631020
H    3.818248   73.361893   28.421431
H   86.284409   58.624138   80.769577
H   51.941917   36.463604   51.142303
H   49.234638   30.608513   98.053482
H   70.849709    2.592192   97.176735
H   74.529602   73.640076   99.933479
H   26.376606   94.814140   81.026001
H   51.643990   80.419296   99.012817
H   19.836334   69.497414   18.933908
H   35.411037   92.499886   99.072090
H    0.740270   67.443481   18.591040
H   96.411171   40.476559   79.293373
H   71.804138   40.358147   16.933615
H   53.414433    6.108677   47.395710
H   92.800034   78.320839   94.870338
H   54.620544   66.990936   10.469548
H   67.002533    2.323448   69.096947
H   65.955490   21.308615   13.729444
H   95.084404   76.460007   10.107734
H   94.557823   86.398483    9.462553
H   92.312790   76.915909   87.608879
H   56.585163   62.050079   69.152359
H   54.269272   96.273964   86.223709
H   61.662716   29.271170   30.869455
H   43.057056   44.620850   21.672653
H   19.759747   63.001518   49.058449
H   43.163120   59.547180   26.868467
H   26.769371    1.570771   17.496021
H   25.325691   25.955074   55.414173
H    1.659118    5.723703   72.236557
H    6.676265    2.741752   71.718697
H   43.987946   65.498116   46.800644
H    0.868344   12.312266   14.474136
H   31.801590   25.401134   79.474632
H   68.085503   77.499893    9.632660
H   69.143013   67.682999    2.424628
H   13.579882   65.508949   89.528839
H   87.597763   77.029724   51.372669
H   89.286865   43.776798   98.464012
H    3.639386   20.431206   28.977247
H   68.147324   72.183502   79.626602
H   33.162422   87.791847   75.697235
H   79.565895   84.605988   54.195766
H   61.544098   73.766533   88.100739
H   16.453476   54.910324   84.489204
H   40.156155   36.665649   30.617420
H   84.873978   98.077179   95.752991
H   87.691490   39.679775   18.490393
H   74.307487   37.871136   92.170792
H   78.708199   22.495037   60.310173
H   54.760342   65.460594    5.558930
H   36.140621   27.400896   71.975594
H   71.963615   34.502544   89.911430
H   82.034225   56.350380   63.180290
H   37.558784   96.258163   66.924866
H   27.101076   86.455673   45.389370
H   27.369904   15.386214   46.494919
H   95.550774   66.153343   72.116570
H   37.099632   43.933289   20.170563
H    2.288800   46.855721   91.357300
H   99.538536   32.640251   32.248756
H   60.148735   87.017944   28.452515
H   90.036240   33.709709   75.241829
H   93.949844   42.918865   55.645218
H   88.965385   23.009621   70.180832
H   57.309338   82.386215   56.878883
H    0.449486   21.771053   19.648935
H   72.953560    5.943150   63.330872
H   44.661140   69.828903   64.851776
H   28.647476   40.079865   33.058578
H   48.726463   39.209137   64.863678
H   25.781008    6.793092   48.915062
H    0.306810   64.758507    2.770957
H   41.335690   12.501987   74.080070
