100
TIME:    4.259, STEP:  4259
H   29.303040   31.449249   95.246780
H   82.852577   35.652916   46.649818
H   52.963043   80.313759   73.350426
H   82.191467   57.179680    6.712050
H   57.023575   14.135135   50.225189
H   61.981068   96.594002    0.528646
H   29.756569   48.926487   23.512354
H   85.137291   57.058659   17.146198
H   48.933586   76.807861   31.997702
H   58.453041   77.536293   74.468842
H    4.093216   37.612492   29.501377
H   93.285316   37.172157   89.769157
H   72.291550    4.039486    1.826433
H   44.199928   91.948433   81.352020
H   32.307487   89.596588   46.046658
H   30.279942   39.221428   79.506775
H   81.623634   63.668987   61.101921
H   92.148277   87.585365   51.889118
H   11.603725   57.025421   87.743210
H   77.772057   15.371527    6.305118
H   11.541611   32.220524   41.646591
H   70.694824   49.737869   56.585083
H   28.880241   59.984047   10.494599
H   23.334282   87.761688   90.762329
H   77.258087   48.400169   67.993507
H   27.131395    0.746716   89.921501
H   94.820320   65.437637   84.473976
H   73.179138   55.235428    7.550095
H    3.778389   35.501461   55.846748
H   64.302155   85.429222   21.966705
H   83.674065    3.968800   72.420418
H   34.672955   34.839851    4.987084
H   70.356544   56.873451   81.481308
H   58.054550   83.410858   92.326942
H   74.903778   36.972466   84.071716
H   42.864964   19.012363    6.038557
H   88.292496   48.562485   44.057789
H   87.959953   81.010429   22.987644
H   65.300995   88.622002   31.583124
H   62.042313   13.469666   73.124390
H   44.178894    2.322227   42.685894
H   48.846481    3.003202    2.893254
H   47.926098   89.039902    9.106342
H    7.393414   84.146790   97.157471
H   87.218819   63.850586   20.564939
H   23.140736   44.150715    0.461110
H   75.008102   56.456932   66.349800
H   56.466869   39.236282   32.100685
H   89.525803   79.719025   74.582153
H   15.201556   95.558281   85.784401
H   43.219685   58.464622   98.323029
H   12.112211   68.536758   94.465729
H   97.216667   46.703857   55.514240
H   78.062798   37.716278   19.754135
H    1.686532   31.836786   36.571667
H   98.895187    8.053717   47.640396
H   66.252502   66.655037   61.053795
H    8.921805   74.677559    3.852395
H   26.175085   18.721962   84.517662
H   77.968216   55.149921   42.474495
H   28.361994   80.508324   82.330513
H   47.754387   88.299911    2.646629
H   63.205257   16.656422   41.418053
H   35.497177   64.963760   11.506481
H    1.368448   20.684368   92.190865
H   39.707924   30.545204   98.009125
H   45.861252   95.608002   72.686630
H   86.167397   61.114090   69.807426
H   69.171616   43.761749   93.114960
H   16.674078   62.359612   92.764893
H   86.789436    5.617182   11.057598
H   22.793411   10.177140   68.446922
H   29.297174    7.639942   52.549561
H   36.453259   79.862129   50.098442
H   67.513191   34.711002   24.259340
H   26.342607   80.535240    9.353369
H   53.645142   57.405468   66.371513
H   32.075893   72.235954   49.649467
H   65.745476   41.008701   65.204933
H   90.655701   77.000374   54.004539
H   94.216019   73.342972   34.538815
H   60.884010   72.042068   30.643003
H   87.263466   78.348663   35.548748
H   43.162239   76.610786   74.422531
H   44.951752   82.481987   34.890045
H   53.273174   65.497002   37.541199
H   51.603706   93.688919   26.629194
H   24.510839   64.308403   51.451141
H   44.070663   57.037727   93.357674
H   89.785660   34.049088   76.465103
H   98.318390    3.406079   23.404093
H   93.419296   15.799620   14.680059
H   58.463646   55.309364   48.359539
H   58.877171   71.573700   13.981527
H   82.954521   68.235191   13.954488
H   45.697540   27.547619   47.466133
H   24.542839   12.095769   92.249695
H   22.499327   52.500519   87.884483
H    5.824255   55.209171   88.300758
H    3.754841   69.338173   87.457153
