100
TIME:    8.209, STEP:  8209
H   62.180901   69.216728   91.630447
H   73.764084   49.698704   95.708511
H   20.876108   64.492249   26.978664
H   82.854462   94.438774   90.199287
H   21.639372   30.744801   43.124893
H    0.716221   92.314674   91.710732
H   22.736870   15.648265   32.407658
H   74.675079   98.785454   54.471413
H   51.834984   97.030685   83.360168
H   50.542976   34.254078   29.135990
H   36.673843   96.549713   49.016708
H   42.527443   35.165188    8.603786
H   20.289177   65.104980    9.319529
H   48.620338   79.773445   81.948738
H   80.312508   36.764481   56.128967
H   71.457016   93.739708   51.622345
H   63.988075   24.932613   20.686010
H   76.609497   95.389198   14.962139
H   73.120987   22.730427   95.844864
H   71.349442   31.486971   75.239510
H   77.143028   38.985691   34.437855
H   49.385166   54.981552   20.206070
H   76.140221   27.860899   97.480286
H   56.324150   35.031708   97.401703
H   35.982613   35.145691   97.165260
H    8.901287   84.102158   18.378620
H   54.208359    1.237474   62.850864
H   39.890083   39.608067   38.118286
H   89.667366   93.876968   69.128288
H   15.762962   87.666458   35.980103
H   39.131374   58.171814   59.909126
H   84.078636   25.706242   39.315804
H   48.588314   67.872887   37.328506
H   24.952030   21.416725   25.918657
H   76.656303   38.133507   24.494055
H   86.232269   28.393572   93.618446
H   67.148064    3.902957   55.302395
H   24.699688    8.721756    1.728651
H   98.566063    2.558432   48.799049
H   89.997406   43.684425   83.901917
H   74.224670   37.852631   35.744961
H    8.404132   73.794754   99.045158
H   81.933868   12.731173   94.418526
H   55.170605   50.431313   83.367584
H   44.585579    8.008892   58.577209
H   72.160820   19.487408   16.511255
H    5.871054   71.271370    4.263757
H   56.688656   79.920029   76.503960
H    4.989762   52.579979   17.013123
H   98.090088   55.679668    9.558681
H   42.937923   77.117393   39.962448
H    4.085628    2.004169   35.167297
H   79.148949   69.607300   26.106249
H   86.590668   73.269501   94.057571
H   87.181801   78.002823   70.167892
H    3.820059    3.898652   13.173065
H   16.667564   52.679283   36.731743
H   14.796918    1.648152    2.109101
H   37.701061   85.627937   81.281570
H   17.310158   58.760250   30.127098
H   77.530472   96.815674   74.357124
H    7.564491   51.533859   23.922802
H   31.369186   47.115875   70.554688
H    6.736665   86.480942    4.262881
H   58.154030    5.204425   60.037445
H   97.057228   34.179527   31.564503
H   28.945440   32.169346   63.392742
H   13.314112   87.018425   58.640274
H   66.039276   59.939949   45.379234
H   96.745262   60.959400   84.432449
H   61.359234   36.861000   63.680641
H   97.276627   79.028709   57.761501
H   71.748901   12.261564   51.272755
H   49.494541   29.872578   15.402769
H   57.906754   40.402523   23.713415
H   19.721743   33.692429   43.567543
H   12.335019   15.290207   36.329399
H   17.652151   13.957317   67.794434
H   55.163139   29.406300    9.268715
H   96.948784   61.836388   13.708433
H   71.519951   14.208230   70.623642
H   57.292198   97.707123    0.239631
H   37.111877   44.401646   11.726232
H   14.915879   14.620935   13.652466
H   52.620392   35.398289   51.982491
H   62.364796   10.583301   11.841180
H   15.415406    6.491080   14.980125
H   88.052330   48.182205   10.463432
H   26.045296   37.107765   61.051765
H   40.552998   71.537003   17.669477
H   59.968800   16.694126    6.821136
H   85.681770   12.874836   89.942055
H   11.666164   73.829674   53.819153
H   40.633820   11.203359   80.319069
H   14.662273   14.416931    4.721222
H   71.951324   71.567627   43.443504
H   11.010769   38.776253   65.081581
H   22.432047   92.641365   14.085112
H   17.654991   72.250648   57.448521
H   49.102993   67.974869    6.940560
