100
TIME:    0.925, STEP:   925
H   54.768227   37.194038   98.299149
H   75.539665   54.898296   36.348904
H   95.657227   40.451839   12.478851
H   81.631866   94.539207   89.460808
H   86.885910   46.900352   40.624092
H   13.672596    0.206916   70.352135
H    4.491979   23.797728   62.788975
H   47.183121   68.625320   23.263329
H   30.889732   97.358307   41.861809
H   49.561760   29.665607   43.913010
H   14.213776    3.462014   50.648346
H   20.535023   70.056206   27.086149
H   84.422867    5.743542   33.191658
H    9.281208    2.225280   27.632931
H   91.752312   87.399902    6.307688
H   64.331985   30.829693   56.257309
H   49.697914   43.168716   57.574150
H   20.910973   49.717972   67.478317
H   59.668022   17.157373   12.096094
H   67.610481   86.138336   79.293404
H    9.385727   64.131683   32.138466
H   51.042896   45.320831   40.493687
H   73.393944   87.099251    5.884003
H   33.099030   47.775669   38.376366
H   96.501335   12.815044   43.387398
H   42.417614    0.048421    2.473282
H   82.315323    4.025054   18.321775
H   54.491486   99.615067   97.348251
H   31.284393   33.014866   13.447300
H   36.461239   67.946121   56.923306
H   52.488621    4.992551   36.214928
H   24.162085   26.955826   13.632164
H   35.513348    0.805362   81.128258
H   17.185585   88.952065   32.781685
H   57.779503   88.997139   81.054367
H   52.980286   57.148449   17.461538
H   68.517754   70.660500   81.351753
H   25.759254   42.024052   87.716270
H    9.135023   60.761971   53.470688
H   76.068230   25.587576   10.810762
H   72.027069   87.920647   64.137131
H   48.487450   53.373672   46.258121
H   19.208403   69.046890   68.285835
H   20.291746   28.273035   71.174934
H   76.418007   95.395981   35.262894
H   66.137703   80.593071   86.945686
H   45.847218   75.640106   35.527290
H   56.288815    4.907178   25.811659
H   92.070000   55.839851    7.574603
H   45.289997   44.828487   18.969528
H   43.474049   80.340584   63.169926
H   50.085793   77.906357   13.336685
H   28.067316   27.372192   49.147957
H   55.269505   92.111595   72.634415
H   67.121643   39.595287    8.255352
H   94.723618   11.559814   61.137619
H   54.891556   62.856499   43.962700
H   57.181091   89.532600   89.728958
H   63.228493   77.851822   40.470715
H   97.979111   98.885452   37.300377
H   18.050283   35.554337   42.275017
H   66.081085   19.335587   53.502884
H   36.974991   44.075798   70.099464
H    6.556897   46.826256    2.024519
H   69.038765   86.965965   81.704979
H   44.521034   96.288673    0.879056
H   13.354025   80.341492   11.721066
H   16.469902   70.438766   10.422950
H    3.002815   83.321732    2.217054
H   49.123825   94.667625   99.785339
H   92.658623   32.464611   51.053501
H   97.697098   20.826744   24.345377
H   46.680389   72.551003   38.030529
H    9.831506   90.843704   48.233101
H    6.770608   29.959864   71.519096
H   47.527866   66.857811   33.689152
H   50.939449   46.373405    7.401640
H   75.438507   90.237297   65.526001
H    5.888983   50.792820   28.002537
H   54.161819   58.578148   41.231537
H   28.983433   38.851208   35.273174
H   10.726200   50.268509    9.429552
H   76.323494   22.695944   18.001408
H   13.800840   91.315041   78.941536
H    7.289254   91.024307   58.084068
H   30.002537   43.031803    6.018028
H   28.933386   36.097893   67.650650
H   70.845840   31.236115   86.125908
H   74.878853   42.669228   20.632267
H   84.554489   71.222260   57.281063
H   61.877354   23.379522   52.996044
H   46.727589   65.074898   51.147003
H   44.633308   55.345512   90.475121
H   36.632706   69.342049   89.186592
H   40.600056   66.874664   37.341209
H   70.322784   59.203667   19.671715
H   89.180466   20.764067   83.991318
H   10.261437   24.113495   41.236137
H   64.647179   40.837605   67.567543
H   96.687057   54.945133    8.595028
