100
TIME:    3.075, STEP:  3075
H    9.372826   40.028099   96.330765
H   15.733585   71.467590   71.970078
H   32.611237   95.132324   87.243492
H   81.992737    5.959524   71.613098
H   67.628555   19.232311   82.329193
H   80.337532   97.876717   83.273643
H   91.809853   68.977455   30.921944
H   78.197357   54.627705   25.857479
H   78.038567   90.644592    6.526094
H   90.809975   60.535805   28.103449
H   14.226013   89.971985   43.549763
H   38.477058   77.824615   74.047310
H   47.661087   75.665543   19.499237
H    2.825315   95.597847   91.248466
H   17.904140   95.356216    2.959001
H   77.885086   42.778412   77.789406
H   76.833900   85.358017   53.317730
H   66.855309   45.163475   92.938660
H   93.161232    7.351854   25.365503
H    9.674583   40.513920   25.692896
H   81.801865   50.091980   73.780441
H   57.183594   48.166092   57.413620
H   44.688347   69.613441   44.371613
H   33.340714   73.561493   78.697777
H   19.604465   42.296860   59.249367
H   32.559292   35.984715    0.952020
H   96.917847   14.652398   60.986492
H   73.081657   99.970329   68.416954
H   78.033508   28.079802   11.815649
H   18.902580   14.734048   27.841904
H   37.075581   97.797195   66.094734
H   59.914558   67.550056   14.595879
H   86.956390   43.500298   74.817238
H    8.026868   91.917427   42.205536
H    4.334392   26.473846   11.975204
H   39.913906   26.041857   10.069631
H   74.730965   91.921860   50.763241
H   36.895760    2.673057   39.435329
H   15.274882   14.418303   46.321655
H   73.562164   24.311800   79.969337
H   25.097033   61.691860   14.791463
H   55.257683   49.867058   47.266937
H   37.727612   81.939804   23.584412
H   82.999863   64.309875   81.390831
H   89.922112   10.568710   19.247046
H   38.415882   21.567707   95.654732
H   65.758102   92.066132   54.978867
H   56.403637   27.043295   58.841499
H   54.912941   77.777641   21.810545
H   90.372795   77.546074   68.593903
H   43.310017   72.772018   85.839142
H   54.571659   78.402603   72.194756
H   72.664421   39.838623   24.277721
H    5.485798   57.038300   67.507782
H   95.956772   28.069229   26.502111
H   97.413742    9.300274   87.946548
H   91.193810    0.818651   48.445580
H   97.085686   86.491592   34.351761
H   32.795372   68.694946   75.414528
H   56.099396   64.143967   76.150276
H   53.674232   35.570286   74.643967
H   89.776848   99.320419   56.222092
H   82.822487   97.450249   22.608505
H   54.195007   58.521736   43.655651
H   54.375721   15.248536   81.930275
H   12.442989   89.405556   28.002060
H   40.855873   54.671581   15.523215
H   67.954460   93.399170   13.205382
H   10.158716   28.836433   67.375221
H   92.685120    2.805516   95.258057
H   24.387596   86.176476   25.262310
H   20.419638   49.471909   81.759277
H    6.495401   66.202538   82.904533
H   62.521542   54.788315   20.452156
H   10.430341   33.021793   34.504307
H   98.350288    4.650846   89.021118
H   46.145298   60.027130   45.432545
H   76.449417   49.654522   84.260742
H    8.971238   44.486485   51.990181
H   48.721596   41.482975   56.007187
H   71.054886   61.093945   63.774265
H   72.045685   64.309647   29.648306
H   12.354029   58.584015   22.778324
H   61.704082   75.293304   82.562958
H    2.601782   56.542622   49.665627
H   80.520874   22.003479   55.320568
H   72.527016   79.775368   70.171158
H    5.455297   59.102432   63.763397
H   19.498055   22.960985    3.042280
H   94.466888   82.761673   34.141884
H   49.864288   39.472805   98.400101
H    5.810381   26.763369   92.117043
H   82.568130   19.781775   56.798912
H   44.438618   99.753609   34.150360
H    3.424356   74.290375   86.747643
H   47.903992   74.303047    8.621233
H   18.523399   44.148418   60.343575
H   18.154356   42.419464    6.833723
H   62.227531   50.105412   87.473091
H   30.211054   99.725868    1.514582
