100
TIME:    3.876, STEP:  3876
H   55.204010   66.572388   95.597427
H   93.451530   14.894571   22.496565
H   46.379646   52.758751   77.844551
H   82.127182   72.958794   27.705877
H   60.454071   83.435997   60.610184
H   67.919685   97.008934   62.600197
H   49.828350   23.063351   93.561180
H   15.240341   23.925442   52.313168
H   58.348457   13.631895   56.107601
H   68.919853   72.036980   59.471954
H   39.718948   22.201557   66.392647
H    7.903000   17.974237   17.031130
H   96.710526   27.204163   39.886093
H   63.164085   93.128944   52.206234
H   27.648361   23.807281   64.458473
H   45.679352   72.719902   11.299196
H   12.422347   38.337666   26.235922
H   83.966515    6.210688   65.169617
H    5.638489   40.957024   67.563477
H   88.092766   23.505075   80.228752
H   34.269379   70.349976   52.040352
H   33.976242   49.229431   89.201096
H   33.993843   63.098961   21.453411
H   58.919106   83.168213   19.207287
H   90.956696   78.773544   65.164955
H   28.883902   12.118396   25.873407
H   27.846670   81.357010   76.876625
H    5.496722   37.358276   94.890434
H   95.450272    0.753354   73.951820
H   49.615891   94.908379   91.519836
H   68.602089   69.623177    2.722160
H   10.490170   45.420624   40.443306
H   43.377872   84.895988   46.977646
H   41.872192   18.510353    8.461926
H   84.423843   65.924217   60.748253
H    9.565264   88.965607    7.307638
H   51.557373   62.588364   13.878825
H    3.791123   88.017525   95.960762
H   81.465820   96.967400   68.699089
H   98.117882   49.325539   42.990086
H   70.354691   89.179276   33.662579
H   83.268326   85.815216   84.899368
H   44.627094   86.743164   81.440910
H   31.849588   77.729950   59.708374
H   20.441717   78.963440   87.790222
H   28.081936   36.845570   98.905861
H   72.015915   35.628502   62.672798
H   56.446415   35.291504    8.402794
H   78.328476   11.439896   89.858673
H    7.168818   89.731697   12.572536
H   43.248905   95.440346   94.284744
H   93.499649    4.075037   19.609303
H   89.274513   44.483093   77.758064
H   86.934166   43.966560    2.854411
H   32.180862   98.270935   33.313572
H   98.415970    8.456961   60.678619
H   41.972851   77.706261   24.627417
H   37.440910   10.847090   13.717997
H   95.969368    2.538629   13.920109
H    3.243733   25.710188   53.367928
H    4.201313   98.321190   12.193041
H   61.347801   91.864822   19.976891
H   37.201862   42.792168   67.681511
H    9.197001   62.878983   21.906086
H   86.167747   51.274853   56.524220
H   63.236336   49.585335   75.363174
H   76.589615   82.365234   54.195843
H   12.624060   39.210342   51.497814
H   50.082603   71.281693   17.135906
H    8.914553   43.094482   93.571381
H   98.951042   31.677265   15.652534
H   54.372520   22.888428   40.404392
H   54.269241   26.583645   62.370598
H   44.886318    4.097990   72.855431
H   49.048153   34.164577   95.224648
H   17.287149   55.988998   35.124096
H   18.870279   90.600632   59.598179
H   14.081859   97.277992   28.496691
H   47.380066   42.133694   60.930786
H    9.438900   97.858025   87.000420
H   86.723862   69.380661   11.648572
H   32.145569   69.540787   62.668823
H   63.033642   71.955200   99.069855
H   16.813200   43.836983    9.404754
H   63.600327    6.437635   72.017715
H   62.089024   51.427605   10.944488
H   26.024008   21.536156    8.366026
H   18.346758   94.972481   55.433907
H   36.122665   78.362907   96.490120
H   23.647818   49.807747   62.772598
H   82.644470   82.724022   15.315835
H   65.081177   86.998589    7.381657
H   33.912514   43.816910   18.741556
H   21.857616   48.341370   88.157280
H   89.575905    2.540353    5.153979
H   14.063338   42.671761   67.248466
H   54.943573   90.116447   14.276644
H   21.093817   49.239502   94.014961
H   24.069542   53.558208   20.380966
H   79.963844   79.167976   24.352339
