100
TIME:    7.466, STEP:  7466
H   12.427349   37.352699   92.310684
H   94.284561    9.434585   48.861034
H    8.104662   11.038081   35.701069
H   82.729752   25.051754   30.925404
H   28.297190   71.190163   63.271240
H   12.239167   93.119621   18.128784
H   61.675434   65.479065   74.304077
H   33.073418   34.505672   22.690178
H   70.099342   68.467911   30.128368
H   70.836708   23.585695    0.041850
H    5.785889   66.653305   20.586935
H   70.886276   97.922821   61.490944
H   67.667671   10.079010   83.155907
H   85.409813   82.063576   25.405849
H   71.288033    3.132901   91.862823
H    1.330865   58.725342   13.297543
H   23.735909   75.788025   53.047787
H   60.724796   31.543304   40.716591
H   61.546825   91.560287   56.698292
H   91.371078   47.262890   24.652567
H   21.233688   12.952965   54.601208
H   78.153030   53.995209   83.479431
H   86.060341   33.901726   18.739122
H   25.358541   26.143282   52.584320
H   62.557198   94.068314   91.678017
H   12.404507    6.004990   88.298775
H   18.277025   32.123619   48.106731
H    2.582881    4.927330   13.558055
H   73.511742   26.465738    4.250914
H   87.273209    6.055988   76.914330
H    9.888705   91.546478   18.692848
H   37.164974   46.232388    8.099007
H   96.251472   22.234083   70.393196
H   93.557564   89.508430   57.220337
H   95.147408   94.389091   79.289658
H   21.644241   70.197906   95.953926
H   95.885818   31.115263   96.757050
H   55.407387   22.320065   49.295479
H   29.929813   18.745234   20.801361
H   59.978851   13.241107   25.443480
H   25.003061   12.360753   18.240202
H   71.020103   70.881073   61.111050
H   75.539642    8.274204   40.750294
H    2.615327   37.959007   10.721717
H    9.035984   37.321613   94.995430
H   81.752159    5.318507   13.492704
H    0.062828   30.865223   97.129875
H   56.643307   72.267365   30.531292
H   83.268684   14.116451   46.653008
H   82.489990   44.370731   61.510719
H   42.988941   48.849625   32.128387
H   67.976151   70.950089   83.940277
H   63.741489   65.299133   69.256325
H    3.799400   85.389053   61.270157
H   46.341171   12.889138   63.852894
H    2.894653    4.680216   38.466537
H   69.562714   74.118080   66.066170
H   70.121994   71.815742   21.248270
H   79.101372   54.233242   38.321022
H   66.338493    1.648767   51.259789
H   30.662069   31.368477   32.287849
H   33.935005   58.449600   57.542824
H   80.927773   97.816193   21.504425
H   55.717518   82.433533   24.436878
H   28.660416   64.548462   90.844719
H   42.699158   71.116386   87.632034
H   88.557007    6.482405   27.521235
H   64.638054   44.526299   23.120575
H   29.006363   13.327179   91.977722
H   81.655342   23.642740   86.008331
H   84.952751   87.415253   72.591743
H   58.459644    3.698831    3.301656
H   20.194086   49.012882   70.323303
H   65.849205   76.895630   59.549072
H   22.115744   39.308475   67.378845
H    2.155545   86.073631   93.562630
H   44.855183   79.599556   23.151712
H   82.746582   62.538197   26.758623
H   19.535734   31.588726    0.976890
H   33.384811    2.310595   77.718666
H   56.974220    6.521554   26.215515
H    1.539858   92.888779   62.397648
H   90.116020   31.975988   40.967560
H   63.796932   51.041134   81.513268
H   88.797653   81.877647   24.007601
H   79.461960   83.293365   60.244919
H   65.792046   60.513451   79.551003
H   76.102837    7.636778   18.167114
H   10.623761   78.477501   67.128548
H    6.243611    2.102703   91.108765
H   29.562214   76.573311   91.130051
H   30.707293   56.993790   75.781792
H   64.038483   51.537411   96.361824
H   68.825508   66.126427   30.219690
H   27.510246   80.970993   87.647675
H   10.582625    0.908445   81.820198
H   69.986412   96.138336    7.812051
H   23.866213   55.875820   29.002138
H   53.049980   69.042198   19.681225
H    2.954199   87.044174   78.517151
