100
TIME:    9.852, STEP:  9852
H   51.071198   18.546528   90.126236
H   28.387539   38.729984   99.304436
H   49.117680   82.696526    7.692070
H   83.130234   26.748774    0.140046
H    6.916903   62.438232   98.578560
H   75.244629   90.534691   54.422958
H   36.626842   26.592287   60.892406
H   45.538528   40.924763    3.615118
H   11.446907   39.062393   79.939720
H    5.663656   57.845127   93.466377
H   83.845917   62.657684   90.752342
H   79.818398   17.520008   91.653328
H   15.520447   65.659111   46.042931
H   67.269424   74.709267    6.980847
H    0.268419   90.003632   77.116478
H    5.394601   50.037033   15.238566
H   31.867867   33.603882   70.254776
H   11.746444   15.440384   58.006279
H   98.717651   91.655884   82.411789
H   27.085941   96.594940   87.102592
H   79.644577   75.420845   89.842072
H    6.901184   57.162659   80.289490
H   54.203804   14.504404   50.473679
H    3.664635   54.686737   75.379837
H   77.220688    4.846832    9.294624
H    1.151438   35.666550   63.765766
H   12.529625   32.940418   95.442551
H    1.259075   16.297764   92.426292
H   25.393520   42.942265   91.463272
H   78.762749   47.002609   66.594337
H    3.792760    5.504164   29.920212
H   87.818710   80.310394   87.215111
H   64.320473   47.662903   85.342918
H   94.372025   70.845695   56.702065
H   35.766823   13.735298   24.456511
H   29.054468   57.086178   88.453987
H   24.734322   43.734138   84.764481
H   56.788860   78.659767   17.669838
H   29.215626   66.758629   89.580757
H   35.245358   89.871338   13.169110
H   61.936966   94.229675   74.453331
H   69.940788   80.242020   82.913811
H   96.073456   22.588985   13.093439
H   50.268780   78.014687   44.008984
H    2.046795   43.162510   99.163757
H   50.959152   50.822643   23.186193
H   18.717037   60.627819   20.041281
H   56.788937   96.842407   78.163116
H   53.011810   16.508137   51.474899
H   32.576279   80.695549   94.680824
H   46.139576   18.745453   52.192215
H   83.935989   49.547043   27.313578
H   13.222914   79.133972   30.683208
H   48.539215   46.461266   66.557808
H   56.364113   21.986742   84.131989
H    5.866413    2.170376   57.241455
H   20.826454    5.270934   92.994545
H   92.456009   46.487465   59.790428
H   67.287392   55.054520   55.147793
H    8.889294   85.045593   83.396278
H   81.175964   20.407934   46.263485
H   49.251183   36.241043   49.584595
H   42.934429   35.035133   57.905411
H   19.558910   95.431000   59.660751
H   23.364998   73.980568   13.042222
H   96.126251   52.501457   28.711985
H   97.123573   88.971375   42.717236
H   99.820564   80.983528   37.185181
H   47.925362   41.884445   42.333057
H   30.113968   43.484005   80.947693
H    9.177965   25.065952   43.975471
H   61.977798   24.475975   78.192719
H   64.623627   30.990114    9.142300
H   13.330791   25.887566   17.781225
H   37.050819   42.821796   48.286808
H   58.568001   38.993603   33.015007
H   61.554634   73.085251   65.472862
H   94.836906    6.531526   58.540573
H   33.952461   24.580288   27.606409
H   16.374409   72.333992   72.162666
H    3.684665   31.205820   68.824059
H   80.581535    8.370614   62.784363
H   41.034187   71.878578   68.198517
H   27.951317   55.216385   63.588379
H   72.621414   32.618195   92.713470
H   24.546413   70.936119   25.936146
H   25.147722   87.031181   93.324471
H   14.474977   16.710611   93.433014
H   60.141850   45.628319   47.614143
H   95.289398    3.936630   76.400574
H   27.207754    5.410244   41.518333
H    7.247133   36.443619   21.246523
H   16.985538   23.123495   80.874870
H   96.105446   10.630925   96.196571
H   86.254929   67.248390   42.473335
H    7.656443    6.688003   58.580322
H   80.597069   33.063644   70.590439
H   19.260668   73.936462   81.095421
H   39.386345   79.345512   19.829006
H   51.156120   25.817245   48.666019
