100
TIME:    2.155, STEP:  2155
H   71.588531   24.396744   97.173050
H   41.325035   21.585039   13.936699
H   16.797331   28.942909   98.038780
H   81.838318   43.864769   22.039890
H   75.868912   45.490269    7.274357
H   94.600227   98.873421   92.162468
H   40.026737    6.852712   58.976662
H   50.507545   75.036285   10.328457
H    0.653930   79.098877   64.438911
H   15.949957   47.325966   92.076408
H   99.802185   52.953556   32.169285
H   73.591415   31.709505   39.533348
H    6.183434   31.327034   10.939817
H   48.378395   98.433540   21.236248
H    6.712377   77.534058   47.184113
H   14.876701   23.245064   54.157974
H   50.808670   24.510597   69.560593
H   47.195992   89.902855   24.835926
H   78.828346   68.759979   76.895554
H   34.458824   60.047916   63.055061
H   36.395874   41.680660   98.754196
H   68.982300   46.944778   35.760101
H   56.971672   77.095741   70.693024
H   18.818703   62.527561   47.025642
H   52.508415   15.263275   52.461876
H   36.777737   63.394077   87.183861
H   76.251335   52.897633   42.729961
H   50.708771   57.027828   38.004459
H   58.029236   44.610207   55.304008
H   83.625999   37.503922   54.704739
H    0.873431   15.295656   38.886364
H    1.825309   92.973030   99.764946
H   22.152584   10.812454   91.936371
H   69.155037   76.229904   80.964691
H   27.205189   96.018524   55.951698
H   59.923504   53.771458   13.231709
H   86.491455   25.615889   78.270935
H   74.919930   19.511463   74.513115
H   54.111214   34.461609   35.476341
H   60.215664   10.439017    7.584677
H   87.970955   30.127016   93.115402
H   37.942078    8.574344    4.045538
H   29.803114   76.422836   57.130356
H   41.747459   48.889175   91.438522
H   69.724403   46.864445   40.520332
H   50.285084    4.020100   91.920601
H   58.565304   42.034393   46.141891
H   56.354504   17.571096    1.917138
H   28.022985   53.971470   58.512146
H   71.084465   63.549877   32.940975
H   43.380207   61.592232   76.138824
H    9.862093   63.772213   32.590298
H   53.582832   34.504150   77.711388
H   26.788593   72.048271   26.910078
H   69.201584   47.424168   18.692274
H   96.262619   10.267147   19.265518
H   32.869312   27.365623   60.945885
H   65.591156   73.374359   58.048050
H   60.236015   29.823286   46.043121
H   16.811626   93.427780    2.317136
H   95.639328   78.353706   46.374432
H   22.427025    7.885254   97.846329
H   20.404739   60.198540   85.716721
H   91.019287   53.517159   68.635124
H   17.856998   88.727753   96.251907
H   68.960213   35.141518   73.605766
H   14.668806   22.867289   71.105606
H   31.505318   40.784424   69.224060
H   64.309044   94.941780   25.074341
H   74.042542   56.534584   97.195312
H   53.601768   48.773674   36.301121
H   96.277954   80.004745   14.400293
H   66.481613   11.712208    6.490383
H   82.764977   13.006427   75.130501
H   66.071068   31.710009   64.761581
H   76.605293   45.688362   50.924755
H   62.615974   39.765915   29.161791
H   33.226147    9.810057   33.452686
H   64.850723   47.188816   41.721321
H   93.840004   91.588058   35.265938
H   53.053791   51.576122    8.788332
H    3.014543   58.301346    6.577406
H   54.149799   43.226349   35.152897
H   98.413887   96.567726   66.594421
H   47.399185   14.086973   38.849289
H    1.690802   88.211479   91.432884
H   11.082312   46.666870   26.302137
H   90.646408   32.759903   73.337196
H    0.403811   74.185341   10.569027
H   75.808029   20.612175    1.255030
H   12.214142   89.795441   78.971390
H   37.736553   57.580700   74.583473
H   23.552677   92.204269   85.631638
H   55.517467   43.949696   72.118217
H   19.332764   56.698685   65.606285
H   71.915741   10.633085   56.140427
H   91.548874   91.351677   13.253464
H   14.777562   34.586212   21.555073
H    6.054193   46.139652   64.535263
H   73.074112   23.349968   90.128204
