100
TIME:    1.717, STEP:  1717
H    1.209093   64.563675   97.574051
H   53.508781   97.837440   86.308128
H    9.268538   97.432426    3.179791
H   81.764801   61.909813   46.049129
H   79.792038   10.382634   19.149612
H    1.390919   99.347939   48.786358
H   62.980701   77.278221   24.724495
H   84.933479   37.144062   50.545395
H   11.420860   21.210968   92.007729
H   27.918165   41.036934   74.926933
H   40.543869   35.329563   74.358749
H   90.306473    9.754940   70.711174
H   34.044258   57.826515   54.472527
H   70.065865   99.783577   87.904274
H    1.384392   16.657932   68.239334
H   32.488113   61.555809   90.515396
H   86.023239   95.544937   29.683825
H   37.835960   11.203012   40.021286
H   72.004646   50.384972   53.819424
H   46.258278   69.349716   33.233955
H   62.387421   85.284546   10.642361
H   26.985111   46.366180   73.056252
H   62.819603   80.657967   83.224304
H   59.513618   57.274448   79.555252
H   68.174187   49.999985   49.230476
H   38.786083   76.446503   28.238264
H   14.019581   71.105118   34.038265
H   87.666489   36.583462   23.526812
H   48.505463    4.871919   76.009026
H   66.830742   48.344315   19.885067
H   83.643654   76.016983   73.543793
H   74.169647    5.075351   40.312767
H   91.300613   42.858009   52.477875
H   50.648842   16.369789   99.417419
H   38.093102   29.128242   29.281792
H   21.841331   19.362844   14.737134
H   44.481476   41.656593   43.758121
H   93.025124   27.528141   43.604832
H   73.531693   43.855110   77.561050
H    1.471607   51.443943   73.124954
H   17.903679   15.097835   82.796310
H   77.307007   88.917351   83.467712
H   26.030363   73.796280   25.494377
H   69.717278   41.547516   48.612820
H    7.718887   64.144272    3.038057
H   55.935856   95.665932   90.142830
H   54.210011   18.362612   42.294868
H   56.331112   13.061506   74.816170
H   15.221028   90.247765   75.983475
H   61.900776   56.883236   63.574108
H   43.413624    3.877925   71.520630
H   88.576393    4.413905   61.345409
H   44.496819   31.964478    3.148442
H   36.930576   79.192772    7.583502
H    4.068943    9.025984   14.976101
H   95.714584   10.727463   34.176071
H    5.103006   40.003838   19.288565
H   98.205902   14.737990   69.329544
H   25.693123   11.315631   79.668839
H   45.713772   59.763325   14.774093
H   68.010361   98.724556   80.524620
H   37.971466   11.962933   17.664932
H   90.695679   90.066429   15.765473
H   60.943871   51.134544   80.524803
H    0.471796   23.709827   55.462727
H   95.867378   56.915871   47.707790
H   49.810684    7.724938   49.959484
H   61.760841   15.734147   48.285130
H   42.477928   26.413651   52.546249
H   65.167053   34.502922   98.117615
H   67.509819   78.575920   41.554722
H   32.392895   94.541031   82.332756
H   95.039566   33.376286   17.721752
H   92.402367   40.724564    1.162155
H   44.954697   31.086786   31.558674
H   66.252785   17.615808   80.396843
H   22.847086   77.729477   21.414118
H   12.648112   38.450256    9.262534
H   43.853844   48.472507   36.835274
H   15.320728   15.442041   73.000130
H   44.482395   47.044811   82.609962
H   70.152283   55.440872   43.203323
H   26.437290   35.914764   93.435730
H   68.285347   59.087505    6.600960
H   68.725754   41.485306   81.308609
H   11.772373   72.124657   61.016960
H   81.829262   78.513031    5.416298
H   83.595474   67.827438   77.895241
H   91.314400   98.572884   14.152138
H   14.532278   38.633827   85.596123
H   94.289223   66.143066   69.721634
H    5.327658   24.640429   66.235970
H   95.450569   79.078171   51.747055
H   13.181845   17.380960   42.586922
H   26.906670   95.930573   55.541161
H   35.738770   27.928183   78.763565
H   26.314774   66.215599   38.443100
H   13.169381   30.856903   28.564236
H   26.918339   44.251606    1.226748
H   45.872879   34.600101   32.314522
