100
TIME:    0.128, STEP:   128
H    8.666554   10.283048   99.028824
H   97.709633   11.684708   86.074738
H   81.963654   83.112816   21.836937
H   81.498093   27.377127   33.146873
H   94.024567   83.017288   62.234642
H   26.031471    1.074339   91.421593
H   46.261456   69.981834    0.462255
H    9.825750   99.676361   96.440987
H   50.481514   73.986679   92.029671
H   71.342567   18.224907   12.701151
H   88.348785   71.392899   27.420189
H   50.956402   30.106483   83.818138
H   35.120476   53.963242   12.407052
H   48.744221    4.682613   66.982002
H   82.059792   58.587975   44.620068
H   96.376495    0.541392   22.414654
H   13.775164   90.461952   85.008965
H    3.880037   88.475891   95.108688
H   47.257462   83.723145   70.104919
H   89.184547    2.848421   24.920435
H   56.680847   43.474983   53.767258
H   74.621254   44.268883    8.356253
H   84.035042   93.581200   28.688721
H    7.148982   38.216923   97.567825
H   25.004847   76.022011   37.503494
H   46.068409   23.799141   77.173576
H   51.041691   37.156284    2.506327
H   21.740486   62.413784   71.006973
H   13.954425   60.705074   51.121368
H    5.902099   87.671677   93.564629
H   21.136904   33.520699   99.283195
H   73.839386   48.973778   87.414497
H   79.374451   59.117043    9.328206
H   83.510353   61.992249   66.358910
H   77.590187   49.244400   32.522743
H   83.684074   94.540764   20.203901
H   92.076393   99.847115   18.550819
H   58.698013   56.611477   31.473978
H   44.966511   77.775566   29.858490
H   51.136791    0.199758   48.105263
H   26.494373   60.570744   45.354115
H   20.117264   17.601343    8.813910
H   12.344184   64.267517   10.719099
H   71.185898   14.916936   93.246841
H   45.552116   26.841656   67.060852
H   76.316673   65.610405   83.820244
H   37.431629   32.645634   28.716986
H   56.246250   96.699997   76.497864
H   68.769035   21.848446   39.368271
H   28.574354   32.697636   74.711807
H   43.531353   57.287025   54.772533
H   11.353814   51.861977   65.660294
H   11.534500   22.750916   95.435646
H   73.721008    5.113783   37.464069
H   30.569481   69.726746    1.492315
H   93.726395   12.397755   88.269379
H    4.367273   85.853432   68.161293
H   16.528551   64.798546   10.257925
H    0.373025   44.177307    1.656413
H   50.574539   37.626549   59.962929
H   67.775040   72.617172    4.416568
H   94.368164   26.753952   89.562775
H   82.915413   98.424446   24.776825
H   51.829468   42.490768   23.665472
H   37.402229   50.621571    7.481213
H   93.482246   35.909901   53.754223
H   77.298790   52.786564   73.242050
H   71.523903   24.857906   72.321739
H   63.283669   40.589058   52.205486
H   32.979759   54.582703    1.461601
H   17.968130   86.695183   60.612247
H   63.411762   47.277473   65.994331
H   98.645432   11.975941   58.467518
H   27.373581   41.279842   95.601189
H   68.341721   28.825827   11.101048
H   28.684004   15.775770   87.316849
H   78.576965   15.449951   93.297058
H   37.994003   42.350727   21.508877
H   67.689659   53.125317   19.115700
H   93.248093    1.982582    9.893837
H   13.386879   30.605364   87.639099
H   50.927952   45.063492   76.077332
H   25.895000    9.393817   42.091156
H   58.976097   23.114719   51.738808
H   46.098114   40.878464   35.344017
H   48.351475   13.751788   50.673229
H   75.703545   94.046272   29.646725
H   58.015717   95.046181   94.407722
H   58.339546   87.045647   27.153740
H   55.018166    4.020461   28.787584
H   29.260866   80.342621   36.164867
H   87.757332    5.133436   35.963676
H   93.497108   31.466822   28.817400
H   59.600334   20.996344   35.449238
H   54.378757   38.264416   19.028515
H    4.493871   90.676994   60.837563
H   52.442162   75.026085   29.827522
H    7.335308   17.327515   53.987213
H    2.614510   37.402050   34.329792
H   47.190746   75.415215   85.357651
