100
TIME:    8.221, STEP:  8221
H   61.369377   68.116264   91.619461
H   73.432663   50.349003   96.465103
H   21.082376   65.355591   26.837811
H   82.856476   93.944389   89.541573
H   21.531843   31.706654   42.799515
H    0.530116   92.301674   92.899086
H   22.107948   16.458597   33.346073
H   73.731903   99.823662   53.369576
H   51.540001   95.876938   82.604858
H   50.215218   34.426380   29.605885
H   35.557632   97.032562   47.860855
H   42.069405   35.766689    7.749641
H   19.523979   64.378601    8.127008
H   48.026161   79.736458   82.861885
H   80.458260   35.692581   55.551910
H   70.974533   92.690147   50.626251
H   63.023109   25.726284   21.778418
H   76.866028   94.805275   14.546192
H   73.307938   23.233875   96.477127
H   71.026077   31.232134   76.056526
H   76.430931   37.791019   34.112202
H   50.535618   54.997482   19.184158
H   75.980003   27.763350   97.136963
H   55.209129   35.175262   96.510529
H   35.553413   34.194000   97.253883
H    8.844707   83.748398   17.249363
H   53.173538    0.738634   63.088993
H   38.877602   40.168186   38.514984
H   89.928291   94.965714   68.561028
H   16.223072   87.369461   36.934082
H   39.603695   59.247833   58.959724
H   84.836327   25.374729   38.204903
H   49.433620   66.994896   38.409561
H   25.459095   20.316994   25.413149
H   76.357658   37.224937   25.224188
H   87.275421   29.333498   93.580727
H   68.299065    3.463464   56.247952
H   24.203701    8.502144    2.575434
H   98.059593    2.297003   47.636147
H   88.867096   42.560982   84.846008
H   73.404541   38.264343   36.027676
H    7.392817   73.841812   99.657829
H   82.037140   12.803156   95.285347
H   54.404400   50.632820   84.540924
H   43.544716    7.535484   59.604156
H   72.005913   19.716244   16.560007
H    5.964861   71.923958    4.378999
H   56.689388   80.043625   77.246452
H    5.340512   51.586174   16.534439
H   98.342041   55.862316    8.719623
H   42.937099   75.958885   40.088974
H    4.668853    0.890651   34.379578
H   79.397789   69.676880   25.409304
H   86.312714   73.073761   94.587112
H   86.226357   79.054398   70.269882
H    3.835005    3.886029   12.764557
H   17.428276   52.333031   37.873039
H   13.903386    0.514876    1.799990
H   38.647533   86.134956   80.360367
H   16.518318   59.682644   29.785789
H   78.287430   96.257568   73.421455
H    7.138588   51.422165   23.379848
H   32.183880   46.297028   69.731812
H    7.560697   86.546310    3.937057
H   58.630379    4.245971   61.154938
H   96.320045   33.582970   32.274036
H   27.982626   32.584171   63.972088
H   12.485170   87.704704   59.213943
H   66.637299   59.077705   44.626579
H   96.988976   61.562092   84.406998
H   60.978100   36.044441   63.536720
H   96.288406   78.630272   58.641048
H   70.966492   11.667982   50.965046
H   49.230412   29.113102   14.689802
H   58.484818   40.420193   24.623266
H   20.005465   34.461563   42.760139
H   13.424886   14.251541   36.542259
H   18.215887   13.172710   68.457275
H   55.738548   29.371052    9.402634
H   96.360283   61.182701   12.674643
H   71.754875   14.332376   71.340866
H   58.192619   97.784943   99.235680
H   37.870941   44.602329   12.869084
H   15.741456   15.647814   12.556465
H   52.036102   34.647648   50.819221
H   62.088581   11.024081   12.674516
H   16.216860    5.618571   15.552330
H   88.245323   47.221909   10.339012
H   26.294365   36.439613   60.953621
H   39.491993   71.043350   18.098448
H   60.459888   17.342045    7.074565
H   86.569649   13.777340   90.170753
H   12.435368   74.189659   54.747131
H   41.793518   11.931386   81.128212
H   14.454769   13.342010    4.996956
H   72.942474   71.093750   42.823692
H   10.058277   39.464912   64.391457
H   22.408884   93.235176   13.844191
H   17.083336   72.302467   56.443363
H   49.848324   67.666885    5.784547
