100
TIME:    9.999, STEP:  9999
H   41.130035    5.066209   89.991653
H   24.328194   46.696148    8.573291
H   51.644466   93.272469    5.966330
H   83.154907   20.691999   92.083023
H    5.599676   74.220932   94.592674
H   72.965698   90.375435   68.981041
H   28.922890   36.518867   72.388000
H   33.984619   53.641689   90.118507
H    7.833360   24.928703   70.687172
H    1.648088   59.955830   99.222023
H   70.172333   68.572586   76.592018
H   74.208549   24.887840   81.189537
H    6.146522   56.761879   31.435097
H   59.990753   74.256172   18.168018
H    2.054154   76.872864   70.046410
H   99.483749   37.179916    3.036080
H   20.047035   43.326347   83.636765
H   14.890067    8.287603   52.911209
H    1.007769   97.822006   90.161499
H   23.125851   93.472626   97.111046
H   70.921387   60.786991   85.851700
H   20.994217   57.357803   67.771072
H   52.240768   13.303053   46.314278
H   90.006592   56.445282   64.462952
H   71.962997   93.189270   10.379696
H    0.457987   31.333080   49.931805
H   99.853622   26.829725   98.358505
H   88.855141   23.159229   97.284721
H   28.589855   56.279392   84.514328
H   84.399513   43.364395   78.280586
H    9.578406   18.685764   18.290039
H   97.100418   76.248245   73.606575
H   74.674355   36.907516   98.585838
H    0.583034   57.373985   50.509026
H   32.108421    2.605383   33.400639
H   41.832951   68.600388   87.991920
H   38.833252   38.350838   96.347549
H   50.713581   75.970360   28.042786
H   23.010250   63.555565   75.335197
H   21.399750   76.110275   24.734797
H   51.890381   99.274277   77.916588
H   57.551880   80.820724   90.414543
H   97.338531   23.471062   23.710957
H   40.882771   80.482033   58.381275
H   89.283875   37.344059   11.735030
H   49.062660   53.626446   23.783403
H   19.866596   68.622498   21.452715
H   56.797909   98.356461   87.258652
H   57.307953    4.340144   45.564178
H   35.661583   82.934105   84.403206
H   46.958286    4.615410   52.468109
H   91.080078   35.905983   17.663450
H   16.272024   79.986328   22.145630
H   45.135399   44.062332   73.044685
H   44.659920   34.869217   85.381363
H    6.049501    2.015746   52.237228
H   30.145172    1.029193    6.975549
H   81.509964   32.605278   56.004173
H   78.881676   61.266624   43.861927
H   99.188911   96.343796   79.215248
H   90.448700   13.571703   34.802662
H   44.033867   34.872787   42.932854
H   52.926060   25.022924   47.834152
H   29.653160   96.231766   55.669258
H   29.199711   62.240314   26.732008
H   87.095764   45.193626   37.403774
H   85.329659   94.054108   49.814220
H   89.666313   89.390450   44.212631
H   55.252258   31.321960   33.113033
H   33.099457   50.866978   80.635910
H    4.509459   15.063133   42.212440
H   49.873222   19.595116   88.968292
H   55.039108   23.718733    5.372868
H   10.095203   16.583988    9.047380
H   44.132103   43.038250   59.432484
H   62.043594   48.415501   23.123810
H   74.905220   60.362392   68.079277
H    1.743045   96.920021   66.659630
H   41.001221   24.148502   29.247194
H    9.165566   64.326332   59.498451
H    6.562208   32.726604   77.610054
H   91.612816    9.325028   50.486885
H   50.332718   74.336952   82.197342
H   38.064297   67.795364   50.162651
H   65.463867   23.422844   78.463425
H   21.162785   76.335121   36.144230
H   34.965519   76.343086    0.333981
H   16.838963    4.947803   91.909988
H   63.192387   37.443459   46.411873
H   82.293213   97.888657   81.656021
H   33.223595   13.347528   44.622704
H   18.123644   47.499573   24.046961
H   26.408558   27.534437   92.242607
H    9.482749   19.487015    7.382413
H   83.713562   54.080887   45.851357
H   19.798035    0.883394   50.987625
H   68.928764   41.499725   62.136414
H   18.976923   81.210648   78.143578
H   32.383568   79.980293    7.515827
H   60.286423   22.045010   34.504574
