100
TIME:    9.627, STEP:  9627
H   66.287262   39.179665   90.332230
H   34.601181   26.536877   85.118340
H   45.250149   66.508858   10.333509
H   83.092468   36.018974   12.473382
H    8.933065   44.403488    4.679058
H   78.732788   90.778450   32.139595
H   48.418262   11.398540   43.297115
H   63.223083   21.460079   24.274307
H   16.977837   60.695160   94.101784
H   11.809992   54.614460   84.656715
H    4.774899   53.604263   12.425894
H   88.404900    6.242342    7.669017
H   29.867920   79.278725   68.402161
H   78.410248   75.402779   89.858665
H   97.535530   10.101723   87.938011
H   14.441952   69.716293   33.916077
H   49.960976   18.722557   49.772141
H    6.934775   26.388924   65.805252
H   95.212326   82.217941   70.549988
H   33.147305    1.373735   71.783531
H   92.996399   97.819221   95.949783
H   85.330215   56.863968   99.450333
H   57.207878   16.333807   56.910980
H   24.570415   51.995087   92.089355
H   85.268173   22.691032    7.633800
H    2.212842   42.299545   84.938499
H   31.931652   42.294247   90.979355
H   20.243631    5.795522   84.989922
H   20.501171   22.528692    2.099273
H   70.135048   52.571304   48.707222
H   94.937920   85.327393   47.721497
H   73.612015   86.527969    8.044426
H   48.471016   64.125229   65.073143
H   84.865417   91.465660   66.181206
H   41.366417   30.770973   10.766681
H    9.496229   39.461704   89.161232
H    3.153961   51.973885   67.035294
H   66.088142   82.776207    1.792793
H   38.713650   71.661278   11.384754
H   56.436954   10.934857   95.466751
H   77.314392   86.508347   69.152428
H   88.902504   79.356247   71.433098
H   94.137115   21.238869   96.841576
H   64.635048   74.238136   22.010578
H   21.581915   52.068302   79.920517
H   53.861946   46.531109   22.272097
H   16.957508   48.390079   17.880922
H   56.775204   94.524979   64.241379
H   46.435463   35.141979   60.451073
H   27.853872   77.269188   10.412621
H   44.886448   40.373070   51.769928
H   73.001160   70.425690   42.083595
H    8.555870   77.829346   43.751701
H   53.749138   50.133102   56.628914
H   74.278694    2.268560   82.219681
H    5.586176    2.407054   64.900986
H    6.562827   11.763506   71.595238
H    9.209918   67.735710   65.585716
H   49.541042   45.546196   72.421242
H   23.736492   67.752426   89.795815
H   66.983002   30.871553   63.805561
H   57.236870   38.335312   59.765831
H   27.640873   50.359344   73.320602
H    4.108253   94.205338   65.769684
H   14.434314   91.950081   92.088890
H    9.947996   63.686913   15.408208
H   15.176186   81.191681   31.854492
H   15.363202   68.115791   26.428879
H   36.710724   58.051514   56.445339
H   25.544342   32.183537   81.424911
H   16.323780   40.376431   46.673988
H   80.506737   31.946678   61.699734
H   79.293808   42.118999   14.911839
H   18.283222   40.127247   31.149355
H   26.212580   42.490490   31.227102
H   53.248215   24.572773   48.153824
H   41.120064   92.558517   61.482368
H   84.265999   21.242928   46.114006
H   23.163542   25.241184   25.095003
H   27.407944   84.590614   91.546669
H   99.280174   28.878092   55.376106
H   63.696953    6.909936   81.608635
H   26.802057   68.115761   46.770367
H   12.471753   35.962845   84.139641
H   83.576843   46.692711   14.524478
H   29.725437   62.672066   10.311372
H   10.120485    3.390572   82.595634
H   10.856785   34.715187   95.764175
H   55.472660   58.156166   49.454353
H   15.182483   13.194328   68.356522
H   17.999838   93.260651   36.766747
H   90.599411   19.521872   16.960138
H    2.562868   16.372053   63.475273
H   75.629677   97.075974   79.075066
H   90.144775   87.401436   37.302895
H   89.072296   15.572735   70.201797
H   98.456718   20.152061   83.530273
H   19.694971   62.802692   85.613548
H   50.104881   78.373909   38.675709
H   37.181168   31.591076   70.341202
