100
TIME:    1.346, STEP:  1346
H   26.297602   98.586349   97.913712
H   63.828804   77.723869   62.905514
H    2.891503   70.740761    7.535583
H   81.702530   77.194542   66.385979
H   83.115051   80.645363   29.208733
H    7.144204   99.749870   12.044260
H   82.426125   52.226917   95.711723
H   14.093353    5.048752   84.608818
H   20.540749   56.880997   15.360791
H   38.056465   35.709923   60.400078
H   75.053391   20.401478   10.096292
H    4.465511   91.158882   97.119789
H   57.642181   80.272423   91.347618
H   88.435844    0.927323   59.672382
H   96.872200   49.795315   86.071518
H   47.404877   94.004936   21.311020
H   15.850883   71.010117   95.905861
H   29.907715   29.244843   52.883102
H   66.224754   34.820023   34.274784
H   56.252792   77.229843    7.974527
H   84.403091   22.218628   20.711884
H   91.411003   45.876503    4.645050
H   67.772987   83.675285   93.838699
H   93.983513   52.824894    7.108005
H   81.443596   79.424568   46.493378
H   40.487217   87.502457   63.011177
H   46.011986   86.525711   26.676123
H   18.970253   19.266430   11.263648
H   40.438522   71.211670   93.546837
H   52.604626   57.526474   90.392082
H   69.049568   42.747223    2.901671
H   50.744389   15.325217   74.658119
H   65.169388   70.002556   19.055265
H   34.973503   50.369820   15.046650
H   47.314888   57.172890    6.691528
H   89.583954   90.218948   16.012938
H    8.898274   55.243019   14.524699
H    8.359632   34.318523   17.425488
H   90.209030   51.774864   13.118703
H   36.415421   86.175270   43.934834
H   43.256516    2.367793   74.055710
H   10.650383   72.268318   66.037460
H   22.834723   71.571503   98.696815
H   93.408607   35.328896   12.339126
H   39.899971   78.783646   71.290970
H   60.722240   88.589668   88.637001
H   50.292591   98.348770   39.124702
H   56.311298    9.241739   51.860775
H    4.377244   20.973862   90.781357
H   54.119717   51.236378   89.524132
H   43.441929   39.696251   67.608871
H   70.546074   38.840244   85.699387
H   36.800674   29.813293   24.695671
H   45.521160   85.244392   91.212479
H   33.604980   76.503006   11.827871
H   95.250381   11.117365   46.805786
H   81.581970   50.708809   84.003181
H   25.831898   49.774773   78.885330
H   96.433815   95.639740    8.149796
H   70.195526   31.245985   25.326134
H   44.607738   15.977347    9.451683
H   51.138977   15.416857   34.452660
H   65.532486   15.366234   41.217384
H   35.466492   49.116394   90.595741
H   85.747459   53.341991   20.911203
H   18.658211   75.359444   25.771376
H   79.576279   94.898163   32.048046
H   87.388237   94.515732   30.549185
H   23.986237   53.071350   75.814400
H   57.651619   15.842621   98.898834
H   79.290382    3.818586   46.004276
H   62.982166    6.854126   55.170303
H   19.230103   51.726452   27.235081
H    0.565702   64.203583   23.211815
H   27.068344   30.558897    3.433414
H   57.481777   93.838402    5.361497
H   89.163048    9.884394   14.851013
H   95.217850   62.710518   88.774277
H   26.069780   49.559422   32.697075
H   33.515244   35.647858    4.962125
H   37.222149   43.206646   60.435787
H   42.314892   53.017960   74.225662
H    2.963397   29.722139   58.099705
H   42.763157   27.340555   40.487770
H   86.790039   64.692535   17.272713
H   20.312008   58.497463   35.253700
H   57.051018    5.487770   87.725494
H   77.623108   97.530762   81.751198
H   83.615425   19.229109   17.187424
H   47.334122   53.898743   72.332375
H   79.106392   46.111279   61.886791
H   77.877327   96.738548   59.167305
H   71.646019   67.959946   23.045290
H   77.324165   94.877251   17.572929
H   33.321720   29.163109   47.015678
H    5.095685   42.578484   97.926086
H   55.763077   44.924541   59.779449
H   11.807200   27.698059   34.500626
H   44.591606   42.652370   32.302944
H   22.832565   44.130413   68.046822
