100
TIME:    2.093, STEP:  2093
H   75.781403   30.082474   97.229813
H   43.049675   18.223505   10.025867
H   15.731611   24.482544   98.766289
H   81.827911   46.419090   25.438320
H   76.424240   40.520695    8.955360
H   95.561409   98.940590   86.022636
H   43.275928    2.666049   54.128181
H   55.380623   69.672211   16.021164
H    2.178027   85.059906   68.341347
H   17.644087   46.435738   89.648857
H    5.569260   50.458836   38.141193
H   75.957474   28.601748   43.946648
H   10.127168   35.078102   17.102020
H   51.448311   98.624641   16.517849
H    5.958202   83.072205   50.164627
H   17.369766   28.667793   59.304459
H   55.793381   20.410439   63.915550
H   45.871056   92.917900   26.985577
H   77.862434   66.159302   73.628860
H   36.129066   61.364338   58.833809
H   40.075043   47.853130    0.437141
H   63.038296   46.862473   41.039978
H   57.799461   77.599983   72.466858
H   24.579170   61.783970   51.630516
H   54.725945   20.180344   52.004463
H   37.062023   65.241547   92.995415
H   81.597435   55.475132   41.499630
H   55.939926   54.133877   35.954853
H   56.681122   38.985023   58.234856
H   81.248589   39.038406   49.775845
H   98.434425    9.735514   43.792080
H   97.910614   94.686317    5.504565
H   17.785404   15.348503   86.350922
H   66.535439   81.911850   83.576721
H   28.746532    0.705249   52.176506
H   54.532940   48.900745   13.444806
H   80.544617   27.886633   73.385559
H   77.482765   20.646244   70.137657
H   56.728447   35.812561   41.484673
H   66.055290   16.243353    2.706633
H   92.208290   27.999598   91.654709
H   43.514282    5.791624    1.132814
H   29.269072   76.051041   52.652252
H   45.706657   47.849945   85.376266
H   75.102669   49.310444   35.214439
H   51.084965    2.837543   91.668953
H   58.080456   38.662689   45.546356
H   56.351192   16.932753   98.080940
H   26.210836   59.106129   60.985580
H   69.784599   62.606197   37.277172
H   43.384937   67.577858   75.485107
H    6.849176   69.525131   36.660656
H   52.296684   34.144653   81.312035
H   28.224216   73.059593   24.174353
H   74.137100   41.988667   18.166273
H   96.185043   10.332306   21.376144
H   28.938967   29.154594   55.049187
H   70.207855   79.229431   59.644974
H   55.346382   27.203451   50.803146
H   20.902798   88.662552    4.080474
H   91.728378   81.237251   51.208248
H   24.627289    8.462460    0.651449
H   16.199333   64.426414   89.970139
H   86.762085   53.179893   70.318138
H   15.396098   93.679352   90.478195
H   72.768990   38.223732   69.939842
H   19.643347   20.723787   68.112320
H   35.788063   37.238647   66.260101
H   61.218834   99.396706   28.963058
H   72.786194   53.415947   97.325867
H   55.570488   52.992088   37.045185
H    1.390288   82.062393    9.860933
H   70.524063   14.778812    8.080212
H   84.129173   16.930002   78.815346
H   63.081711   31.621790   60.061626
H   75.139870   41.714500   55.096340
H   56.986534   45.139923   28.065088
H   30.313274   13.864096   30.028477
H   61.877640   47.370930   41.029289
H   96.880592   94.964493   40.607307
H   51.840488   50.934704    5.082793
H   98.362610   57.896439   11.761969
H   50.227024   42.191376   29.247684
H   94.149117   91.262306   72.257446
H   50.418015   17.965225   44.859512
H    3.117852   85.934349   87.127434
H    6.941473   51.174774   23.345747
H   89.648331   37.723801   73.982399
H   99.117134   77.637459   11.076225
H   81.289413   23.163185   99.038628
H    9.676849   86.447388   77.662064
H   33.148708   52.918118   73.401863
H   19.574795   90.346237   80.835190
H   49.524746   40.188694   67.937645
H   20.404869   62.252441   64.181541
H   66.794800   13.081331   59.342789
H   96.470200   87.793602   16.819199
H   14.549920   34.058319   22.547237
H    9.007627   45.872395   69.729050
H   69.223709   24.942398   96.099640
