100
TIME:    1.151, STEP:  1151
H   39.484535   16.468636   98.092239
H   69.253075   67.152046   50.604946
H   99.540222   56.711452    9.825241
H   81.669800   85.228294   77.073845
H   84.861649   65.015251   34.496132
H   10.168072   99.961128   92.732811
H   92.646843   39.059002   80.462471
H   29.419968   88.178238    2.512342
H   25.334221   75.629395   27.635344
H   43.385521   32.910011   52.763550
H   93.191818   12.555343   28.879652
H   11.908634   81.384483   10.999823
H   70.046127   92.070137   10.729226
H   98.091225    1.528507   44.832256
H   94.500755   67.212463   95.444229
H   55.245224   11.061245   37.497543
H   31.527863   58.114456   78.151268
H   25.740578   38.727646   59.643356
H   63.187202   26.638987   24.001993
H   61.505974   81.371689   94.698112
H   95.974670   41.632042   26.004490
H   72.713188   45.619125   21.249409
H   70.376518   85.261208   99.417694
H   12.101196   50.486179   21.590858
H   88.418083   94.891029   45.054741
H   41.381344   93.313538   81.289368
H   62.827820   94.630875   22.806532
H   35.423080   10.164247    4.818141
H   36.198486   53.519566    2.764646
H   45.127285   62.352676   74.889915
H   61.378819   25.260134   18.331738
H   38.431919   20.712341   92.710258
H   51.433285   84.269905    1.488124
H   26.734444   68.240456   23.261206
H   52.161919   71.913338   94.817276
H   72.629761   74.901260   16.683905
H   90.194939   62.384132   99.159737
H   16.419029   37.887592    3.665180
H   98.974747   55.937538   31.809021
H   54.781471    4.430014   28.592020
H   56.582130   95.676292   69.461594
H   28.175865   63.517395   56.876011
H   21.155073   70.402145   84.610970
H    5.860661   32.060349   93.272835
H   56.813995   86.478195   54.603729
H   63.237995   84.870338   87.845528
H   48.233570   87.830505   37.458443
H   56.300884    7.234045   39.795269
H   98.677299   37.123192   98.559219
H   50.029942   48.268353    3.163331
H   43.456806   58.522011   65.552826
H   61.069221   56.935528   98.499832
H   32.755531   28.682617   36.021294
H   50.036427   88.425163   82.607437
H   49.129463   59.408566   10.173141
H   95.006393   11.322300   53.444046
H   69.218918   56.335411   65.457115
H   40.352478   68.189919   83.907913
H   81.053642   87.400681   23.120098
H   83.064407   16.257086   30.872398
H   32.307171   25.045074   24.654976
H   58.059906   17.232010   43.276398
H   52.305237   28.664326   54.595070
H   22.075968   48.055641   95.889091
H   78.008278   68.916588    2.751203
H   30.637428   85.053505   14.241510
H   95.221268   88.155762   22.632938
H    0.858186   83.363693   21.227057
H   14.266951   67.082809   88.043556
H   53.701691    6.034413   99.309448
H   85.482323   17.086924   48.342991
H   79.061478   13.326132   40.892540
H   31.945004   61.371418   32.235348
H    4.857495   76.542831   34.801247
H   17.666622   30.281435   88.651176
H   52.871296   81.341454   18.482285
H   71.459038   26.785772   11.400591
H   86.056396   75.460533   78.006073
H   16.722361   50.130711   30.522518
H   43.078384   46.268776   21.761383
H   33.406116   41.189281   48.780895
H   27.683270   51.744461   90.531204
H   90.624367   26.467726   39.526859
H   29.348280   10.654153   58.298897
H   96.284744   76.888962   36.175835
H   24.800495   51.334034   21.712364
H   44.027412   19.665855   78.427170
H   74.483994   13.142700   83.777489
H   79.568794   30.085833   18.783016
H   64.573959   61.922081   65.360863
H   71.126198   35.582600   57.768749
H   63.449299   82.072487   55.452438
H   59.134193   62.116615    7.959142
H   58.477142   83.049782    4.425150
H   36.692921   46.630569   42.534630
H   88.989441   50.278984    7.998293
H   71.241440   33.733822   70.993973
H   11.091229   26.037750   37.620399
H   53.881004   41.811802   48.636753
H   10.722427   49.139606   86.827950
