100
TIME:    1.196, STEP:  1196
H   36.441322   12.341972   98.051041
H   68.001320   69.591698   53.443539
H    0.313484   59.948986    9.296867
H   81.677353   83.374352   74.607414
H   84.458588   68.622200   33.275963
H    9.470268   99.912376   97.189140
H   90.288216   42.097752   83.981529
H   25.883057   92.071518   98.380638
H   24.228035   71.302841   24.802759
H   42.155739   33.556145   54.525826
H   89.006027   14.365941   24.545031
H   10.190990   83.640114    7.796790
H   67.183502   89.347588    6.256658
H   95.863060    1.389772   48.256901
H   95.048012   63.192913   93.281296
H   53.435913    7.125050   33.762192
H   27.910099   61.090378   82.248482
H   26.702225   36.539307   58.083298
H   63.887924   28.526918   26.372637
H   60.293701   80.415878   97.761925
H   93.304306   37.152023   24.783119
H   77.028069   45.678520   17.417583
H   69.775703   84.895226   98.130234
H    7.920211   51.025883   18.248611
H   86.808586   91.321846   45.386734
H   41.175007   91.972519   77.071304
H   58.947243   92.760452   23.699514
H   31.626274   12.264781    6.305544
H   37.176956   57.602360    0.637553
H   46.852825   61.238937   78.467339
H   63.148991   29.295721   14.770966
H   41.273258   19.469170   88.544380
H   54.603184   80.977440    5.542080
H   28.635765   64.116463   21.365549
H   51.043373   68.511696   97.557678
H   76.542267   78.436111   16.529066
H   94.511192   60.736183    2.705519
H   14.559183   37.063961    6.840615
H   96.951889   54.976921   27.495857
H   50.543152    0.217190   32.132542
H   53.506989   97.220558   70.521774
H   24.131523   65.536903   58.990192
H   21.542685   70.671997   87.861549
H    2.987178   32.814629   97.672859
H   52.910759   84.702530   58.454781
H   62.657436   85.728645   88.028175
H   48.708729   90.257797   37.842964
H   56.303288    7.697359   42.579617
H   99.992912   33.396423   96.764328
H   50.973736   48.953281    0.016069
H   43.453373   54.177605   66.027298
H   63.256187   52.759693   95.545883
H   33.689026   28.943542   33.407578
H   48.994442   87.691139   84.593216
H   45.546890   63.353687   10.555002
H   95.062698   11.275007   51.912140
H   72.071930   55.036964   69.736977
H   37.001648   63.940269   82.748856
H   84.602913   89.302002   19.665413
H   80.094666   19.716063   29.592491
H   35.145763   22.952522   21.146561
H   56.462769   16.813156   41.240150
H   55.357719   25.595535   51.507912
H   25.166044   48.300430   94.667549
H   79.794243   65.322685    6.941972
H   27.872993   82.816414   16.902205
H   91.610886   89.711700   24.805656
H   97.749718   85.937241   23.378317
H   16.509811   63.849396   85.221443
H   54.613213    8.297817   99.214691
H   84.053413   14.025000   47.803288
H   75.350845   11.832592   44.187408
H   29.010796   59.145657   31.081440
H    3.867092   73.695312   32.126762
H   19.836250   30.345465   92.062431
H   53.935253   84.225365   15.454366
H   75.544579   22.885454   12.196842
H   88.170578   72.518257   80.491043
H   18.879457   49.998875   31.024284
H   40.871506   43.817795   17.884583
H   34.286739   41.654827   51.470486
H   31.059677   52.038345   86.768387
H   93.471886   27.218744   43.812901
H   32.444019   14.504861   54.188637
H   94.093658   74.074402   31.813576
H   23.764690   52.987133   24.837288
H   47.032860   16.393990   80.572937
H   75.208405    9.539957   83.309883
H   80.502632   27.580435   18.414803
H   60.595535   60.070541   66.969673
H   72.967781   38.012295   58.719067
H   66.778847   85.456963   56.309715
H   62.021538   63.464844   11.440521
H   62.826698   85.779198    7.459222
H   35.914951   42.599617   43.568718
H   92.706253   48.501945    5.673912
H   67.669510   36.316296   68.406006
H   11.256454   26.420898   36.900452
H   51.737297   42.005779   44.867413
H   13.517075   47.983639   82.493843
