100
TIME:    6.350, STEP:  6350
H   87.898026   39.694756   93.332413
H   25.103439   48.962032   78.493935
H   88.916351   30.747875   48.804737
H   82.542435   71.030182   92.097412
H   38.294678   81.737930   93.531433
H   29.548489   94.328667    7.607692
H   20.167149   90.119698   87.031349
H   20.788818   37.957378   25.157711
H   97.532753   75.766739    0.376234
H    1.318451    7.560494   56.345921
H    9.593491   21.748343   28.085690
H   13.477989   41.983189   40.928703
H   38.860153   77.593224   94.053642
H   40.666420   85.503395   40.478298
H   57.733101    2.819525   45.530560
H   46.204559   56.334816    5.935259
H   13.477975    1.974902   51.453896
H   36.858921   85.848175   79.400917
H   44.168926   44.744591   97.905914
H   21.437889   70.960976   48.670128
H   87.458725   24.054615   84.892815
H   71.161026   52.513702   78.517136
H    0.960643   42.978081   50.669907
H   29.051075   12.792696   35.467022
H    2.472573   82.573196   83.436073
H   17.599440   38.937897   93.291969
H   14.510921   78.515945   25.960768
H   96.747665   52.836235   76.671310
H   49.245689   25.213524   57.003998
H   44.479816   33.677483   88.195694
H   65.970009   91.472527    6.987157
H   66.700134   77.066650   11.412712
H   17.642246    3.886552   69.855103
H   46.404793   91.783188    4.236554
H   22.922333   78.885963   11.389344
H   24.632124   82.787788   99.461861
H   88.846626   71.984497    8.820462
H    1.536637   42.746120   70.542458
H   77.037659   43.060051   28.949804
H   65.093445   17.717323   37.639149
H    1.274648   74.065529   91.948952
H   65.070557   66.504669    4.139161
H   65.935394    1.579578   60.140198
H   73.873886   19.227316    1.605591
H    5.840672   81.352951   99.496445
H   96.158531   84.033371    8.958784
H   91.344040   70.172501   86.418755
H   56.578541   60.772919   61.479939
H   50.644974    6.543669   91.169632
H   59.060146   27.383337   39.539894
H   43.065571   56.592102   20.365692
H   13.732111   74.507401   57.198219
H   40.590824   58.828186   34.070370
H   29.640617    3.594125   12.024570
H   35.198936   15.088309   54.359333
H    1.504677    5.854139   76.457809
H   98.815239    6.319909   59.925301
H   53.221344   77.208260   49.994492
H   91.088196    7.072360   23.993279
H   39.983932   15.869733   83.001488
H   60.263599   83.266983   19.300449
H   73.544014   68.837173    8.035485
H    5.161461   73.970375   98.031891
H   79.083359   76.354248   54.739643
H   84.365540   53.680943   86.916588
H   11.256470   26.595634   21.645399
H   78.095932   67.896027   73.640030
H   41.727913   80.700294   69.769318
H   73.386330   93.515839   61.973202
H   59.032349   67.530205   88.361847
H   20.391388   63.347153   85.976387
H   50.380062   40.780945   21.538700
H   92.958878    4.210678   98.931702
H   90.421776   47.527218   25.857718
H   68.328484   37.694225   82.770889
H   75.777351   14.547787   68.653870
H   43.498623   76.192528    3.359730
H   30.314877   35.509178   65.128120
H   66.016777   34.866772   88.528313
H   88.115402   63.105141   73.863029
H   35.132179   94.975327   59.513554
H   17.796251   85.651535   55.762753
H   19.526245   13.312720   34.685440
H   87.019341   55.542503   83.442619
H   43.137291   51.689911   32.191010
H    5.142899   42.300514   82.746399
H   91.256859   41.656059   26.335974
H   58.154472   96.940063   29.738190
H   87.462997   40.613945   76.255989
H    4.912913   48.020885   51.212997
H   83.890800   16.313988   67.562180
H   48.134594   73.060104   54.516609
H   92.500824   18.050259   10.059825
H   60.969303   98.420357   54.969727
H   46.804878   80.935471   62.002293
H   18.405594   44.976593   39.463303
H   58.569115   32.092987   71.994965
H   26.020357    0.657610   51.404106
H    6.213796   64.223045   13.157578
H   33.633938   15.684010   86.024834
