100
TIME:    0.330, STEP:   330
H   95.006264   91.758705   98.843887
H   92.090645   22.636803   98.816864
H   85.434296   97.645744   19.465126
H   81.531998   19.054213   22.074492
H   92.215271   99.208481   56.757439
H   22.899109    0.854486   11.426214
H   35.675381   83.620903   16.259203
H   93.948944   17.151638   77.894936
H   45.515968   54.565262   79.315285
H   65.822212   21.124557   20.611811
H   69.559235   79.520859    7.962555
H   43.246090   40.231758   69.439323
H   22.271427   41.742020   92.329765
H   38.742237    4.059801   82.353310
H   84.516365   40.545876   34.909359
H   88.255096   82.873299    5.646897
H   97.535057    3.820479    3.400818
H    8.196559   78.652679   88.105759
H   50.402924   92.196320   80.748016
H   83.716591   98.612854   38.701286
H   44.693878   23.364677   48.285431
H   93.990273   44.535500   91.156502
H   81.338051   91.938347   22.908684
H   88.380936   40.639591   82.566391
H   17.780764   60.003040   38.995316
H   45.145847   17.776569   58.241890
H   33.622211   28.758923    6.514634
H    4.697007   71.842468   77.683182
H   18.346848   79.032280   41.572479
H   13.647471   82.672226    9.622894
H   29.083010   51.635231   83.298515
H   86.593842   43.393318   68.714333
H   93.602234   44.337532   27.525961
H   92.045174   43.480103   57.848747
H   72.569160   33.974808   44.822563
H    1.246926   10.408815   19.508848
H   11.450650   92.450050   34.467907
H   50.349670   52.914288   45.727962
H   35.884586   73.463463   10.497287
H   32.111446   81.289986   63.999016
H   12.690403   67.502022   50.114689
H    1.962651   26.667856   18.303946
H   14.083743   65.478851   25.309681
H   58.286575   18.302046   12.997574
H   28.030746   18.871662   84.346252
H   73.736809   69.407768   84.612389
H   39.564564   43.543018   30.443060
H   56.257038   98.780533   88.996490
H   74.674675    5.119363   31.309729
H   32.810940   35.772205   60.583031
H   43.519444   37.784538   56.896351
H   21.170092   33.117119   52.398994
H   15.724468   23.922180   83.704506
H   69.045197    1.817675   46.378010
H   14.487745   87.434418    3.206349
H   93.979141   12.185129   81.392822
H   17.172935   80.024849   87.373116
H    1.486565   45.722343    5.054659
H   16.303787   52.712128   86.149399
H   37.241760   53.153557   54.223595
H   80.517166   63.222527   88.666473
H   87.198792   24.873764   80.423828
H   96.616127   84.649757   10.918773
H   65.701057   43.589600   18.180563
H   45.420769   34.487400   26.293112
H   81.073006   25.867847   65.698036
H   61.092186   59.769459   82.994370
H   57.570442   36.410751   81.978508
H   73.350487   26.074623   39.535793
H   37.071480   64.743309    1.036824
H   11.553144   72.951317   58.189579
H   46.756687   40.573524   80.783089
H   85.474869    1.984745   53.287754
H   22.927399   28.496317   83.595726
H   78.081711   29.113249   26.414440
H   33.459988   28.722097   73.724014
H   96.916504   97.942009   96.872498
H   47.484329   29.142513   32.664845
H   77.371086   52.535061   21.368073
H   83.341660   90.981789   92.491455
H   17.339642   32.695660   99.712372
H   66.084297   46.382706   59.186020
H   38.676022   12.765441   61.330719
H   72.871552   40.400120   33.288307
H   36.261887   28.242035   15.762528
H   43.698177   21.175285   64.699455
H   89.194664   79.359230   39.278835
H   61.267517   78.873482   92.308693
H   62.531441   75.798424   25.500870
H   37.159462   95.708267   36.009014
H   37.527531   91.250793   40.430737
H    2.703332   20.325201   39.811897
H    6.457717   37.518936   44.444695
H   79.123817   33.249237   49.068272
H   50.886539   20.169918   23.669651
H   21.178268   82.700066   50.404060
H   36.408165   86.618523   18.210426
H    8.076808   19.047424   50.755447
H   92.991753   38.272793   17.409641
H   59.735607   70.227745   65.902328
