100
TIME:    1.344, STEP:  1344
H   26.432848   98.769760   97.915543
H   63.884438   77.615440   62.779354
H    2.857130   70.596870    7.559069
H   81.702194   77.276939   66.495598
H   83.132965   80.485054   29.262962
H    7.175219   99.752037   11.846189
H   82.530952   52.091862   95.555321
H   14.250549    4.875731   84.792442
H   20.589912   57.073288   15.486688
H   38.111122   35.681206   60.321754
H   75.239426   20.321003   10.288942
H    4.541851   91.058632   97.262154
H   57.769394   80.393425   91.546410
H   88.534874    0.933489   59.520176
H   96.847878   49.973949   86.167648
H   47.485291   94.179863   21.477036
H   16.011677   70.877853   95.723763
H   29.864975   29.342102   52.952438
H   66.193596   34.736115   34.169422
H   56.306671   77.272324    7.838360
H   84.521774   22.417740   20.766167
H   91.219231   45.873863    4.815351
H   67.799690   83.691551   93.895920
H   94.169334   52.800907    7.256547
H   81.515129   79.583199   46.478622
H   40.496387   87.562057   63.198631
H   46.184456   86.608841   26.636435
H   19.139000   19.173077   11.197539
H   40.395035   71.030212   93.641380
H   52.527935   57.575974   90.233086
H   68.970894   42.567871    3.059928
H   50.618107   15.380473   74.843269
H   65.028519   70.148888   18.875090
H   34.889000   50.553108   15.130905
H   47.364601   57.324074    6.569747
H   89.410065   90.061844   16.019819
H    8.706449   55.316261   14.367110
H    8.442293   34.355129   17.284359
H   90.298935   51.817558   13.310395
H   36.603790   86.362495   43.777470
H   43.393188    2.299168   74.008591
H   10.830132   72.178566   65.943497
H   22.817495   71.559509   98.552345
H   93.536324   35.295372   12.143577
H   40.073448   78.862564   71.119827
H   60.748043   88.551521   88.628883
H   50.271473   98.240891   39.107613
H   56.311192    9.221148   51.737026
H    4.318786   21.139496   90.861130
H   54.077770   51.205936   89.664024
H   43.442081   39.889336   67.587784
H   70.448875   39.025837   85.830673
H   36.759186   29.801697   24.811829
H   45.567471   85.277016   91.124222
H   33.764206   76.327682   11.810900
H   95.247879   11.119467   46.873871
H   81.455170   50.766518   83.812965
H   25.980831   49.963646   78.936844
H   96.276070   95.555237    8.303337
H   70.327515   31.092253   25.383018
H   44.481579   16.070351    9.607616
H   51.209961   15.435476   34.543159
H   65.396835   15.502625   41.354591
H   35.329147   49.105515   90.650032
H   85.668083   53.501736   20.724947
H   18.781075   75.458870   25.653120
H   79.736740   94.829010   31.951485
H   87.526390   94.401352   30.453573
H   23.886551   53.215057   75.939827
H   57.611107   15.742023   98.903046
H   79.353889    3.954672   46.028263
H   63.147068    6.920506   55.023865
H   19.360512   51.825375   27.286366
H    0.609720   64.330139   23.330681
H   26.971916   30.556051    3.281797
H   57.434490   93.710228    5.496070
H   88.981468   10.057741   14.815624
H   95.123886   62.841301   88.663834
H   25.973909   49.565281   32.674767
H   33.613327   35.756790    5.134426
H   37.183010   43.185955   60.316250
H   42.164822   53.004898   74.392899
H    2.836850   29.688761   57.909214
H   42.625568   27.169413   40.670448
H   86.887421   64.817627   17.466591
H   20.358044   58.423992   35.114815
H   56.917442    5.633186   87.630127
H   77.590912   97.690887   81.771980
H   83.573921   19.340460   17.203789
H   47.510941   53.981033   72.260872
H   79.024544   46.003292   61.844555
H   77.729347   96.588127   59.129204
H   71.517693   67.900009   22.890558
H   77.130867   94.755943   17.438080
H   33.356297   29.342262   46.969719
H    4.930491   42.657463   98.029388
H   55.921829   44.809765   59.894470
H   11.799857   27.681030   34.532623
H   44.686882   42.643749   32.470470
H   22.708359   44.181789   68.239449
