100
TIME:    3.279, STEP:  3279
H   95.577301   21.320213   96.143997
H   10.058575   82.527344   84.838364
H   36.117798    9.808646   84.849754
H   82.026978   97.554436   60.431446
H   65.801346   35.583813   76.797760
H   77.174934   97.655708    3.475866
H   81.117409   82.751564   46.875008
H   62.163361   72.276413    7.126432
H   73.023857   71.030884   93.685234
H   85.234962   63.464943   36.092430
H   95.250443   98.180420   23.899935
H   30.690407   88.050140   59.526131
H   34.685410   63.323318   99.223503
H   92.724403   94.969063    6.772618
H   20.385815   77.133926   93.153389
H   69.682877   24.935883   60.855812
H   60.429482   98.851974   71.888657
H   71.213219   35.243004   85.866394
H   96.339394   15.910464   36.112423
H    4.178947   36.182468   39.582176
H   69.696213   29.782562   68.242783
H   76.741272   48.436905   40.041122
H   41.964653   67.954323   38.535126
H   14.386917   76.008148   63.547764
H   12.308660   26.118118   60.755959
H   31.623583   29.906717   81.830193
H   79.327454    6.172025   65.034279
H   55.868649    9.492325   75.159264
H   82.469238   46.588303    2.172895
H   26.724251    9.684709   44.059357
H   45.105030   16.090063   49.954903
H   72.795296   61.913368   95.710625
H    1.325144   28.574635   93.195168
H   16.646610   73.221992   33.611115
H   99.263214   11.052945   24.396805
H   57.650654   42.067783    9.368455
H   94.297981   84.451157   66.837700
H   28.464760   98.939812   53.830441
H    6.663699    9.974012   26.552523
H   54.347675    5.213817   96.018898
H   11.155611   68.692017   19.597517
H   36.923332   59.023338   56.851227
H   39.484783   83.163132   38.319263
H   69.972824   67.727722    1.337559
H   72.225883    2.520213   36.704159
H   35.784016   25.458698   96.482735
H   67.351852    3.160311   56.938370
H   56.414532   29.143652   71.463875
H   60.875496   60.881691   13.672814
H   94.649773   80.649529   54.325916
H   43.294453   53.077377   87.990082
H   64.485901   59.473335   58.802914
H   76.894707   41.021484   12.429653
H    0.762135   53.709167   76.509979
H   79.714218   45.947556   28.236715
H   97.668991    9.085516   81.001907
H    4.127086   94.932320   67.847618
H   81.895256   67.226517   29.096935
H   48.883842   77.314270   59.753643
H   42.638123   79.823105   70.348030
H   66.542519   26.084049   58.738110
H   82.536491   97.421616   46.991104
H   96.671303   83.529839    8.619614
H   68.203667   59.631447   38.116436
H   62.473652   98.955177    0.927686
H   99.911171   79.264076   40.063873
H   24.488449   61.723614   25.372869
H   53.862846    5.066203   22.957762
H   20.326431   14.178291   54.580494
H   96.818909   13.066351   94.828491
H   17.909096   72.296532   22.814877
H    3.599121   42.701584   96.694458
H   93.194122   56.112080   77.675041
H   58.031322   41.878006    8.327847
H   20.265768   33.312840   49.968662
H    3.172840   17.725405   75.293701
H   64.667915   42.344910   49.040272
H   86.033707   36.314648   95.525940
H   18.753469   43.887272   54.267189
H   38.717079   30.371975   38.432358
H   75.045486   63.204418   75.967072
H   87.351288   65.641922   12.589422
H   25.261114   61.989410   42.208378
H   75.739410   92.749847   63.929787
H   92.668732   43.781727   29.890053
H   75.826782   29.496750   69.486893
H   86.151711   64.942909   79.898636
H    8.738516   42.769608   61.642029
H   23.732231   11.603031    1.373258
H   76.431366   74.369583   41.433601
H   58.212799   50.487423    2.708262
H   20.905355   42.104767   96.004921
H   95.644974   25.903082   72.574547
H   64.156593   12.127815   47.904236
H   99.896965   56.017597   91.435509
H   64.753540   66.247139   98.084114
H    2.331110   55.855633   48.611458
H   18.902983   44.156403    3.569571
H   52.509392   50.984776   70.386971
H   42.881680   94.490150   81.863434
