100
TIME:    6.594, STEP:  6594
H   71.397049   17.319269   93.109024
H   18.365479   62.184780   93.877968
H   93.112335   48.302437   45.939777
H   82.583389   60.977692   78.723877
H   36.109192    1.295594   86.915405
H   25.763912   94.064323   31.771832
H    7.379380    6.595258    6.112520
H    1.610900   59.065746    2.753964
H   91.534767   52.307205   85.018227
H   94.653847   11.064409   65.899513
H   86.897217   31.566275    4.582409
H    4.164543   54.213718   23.560688
H   23.289963   62.838253   69.808525
H   28.585079   84.751320   59.047482
H   60.696724   81.024254   33.797070
H   36.394073   34.993752   85.681152
H   93.856758   18.113262   73.666176
H   42.076908   73.975067   70.941933
H   47.968395   54.981377   10.760486
H   14.864677   65.778358   65.282799
H   72.979416   99.763031   78.269341
H   94.553543   52.837616   57.738266
H   97.702797   40.993645   43.689011
H    6.379917   15.711641   17.345369
H   93.745674   63.223938   85.238075
H   16.487150   31.724304   70.346230
H   93.470772   68.374100   30.802717
H   76.158676   64.225334   84.735641
H   54.551170   47.351055   45.469696
H   53.836079   27.638542    7.592986
H   75.571999   13.352664   87.682716
H   82.106506   70.324036   88.824471
H   34.829365   86.034233   91.836548
H   56.714180   69.421982   93.957275
H   16.849884   60.411720   26.235239
H   45.842556    1.898751   98.694893
H   12.249749   63.048950   28.046606
H   91.450844   38.280209   87.762001
H   66.739441   37.743401    5.305017
H   42.112247   94.874786   56.837543
H   84.598740   82.438881   97.697487
H   44.507629   67.461517   16.595798
H   68.035248    3.043339   77.765160
H   58.293209   23.322775   25.462339
H   84.674858   71.724899   20.376745
H   93.008751   88.687302    9.950071
H   93.250290   83.441788   88.760612
H   56.591572   63.286041   76.577286
H   57.776657   86.334999   81.437332
H   64.181396   31.098104   22.479105
H   43.048817   33.035767   22.937454
H   25.593029   51.865959   41.181252
H   45.652439   60.242981   19.899015
H   23.990746   99.612808   22.790974
H   15.770790   36.471474   56.434986
H    1.808578    5.597475   68.151474
H   14.283610   99.279091   83.131660
H   35.052399   54.165718   43.709824
H   10.332376   17.383205    5.261906
H   23.883194   34.625072   76.061546
H   75.655083   71.918839    0.276661
H   64.883980   66.566055   96.995209
H   21.726702   57.320473   81.300079
H   95.837509   77.683411   48.114307
H   94.049438   34.192142    9.639331
H   96.267761   14.465689   36.072586
H   58.519638   76.332672   85.420059
H   24.873238   94.654640   81.433929
H   85.546120   75.983551   46.669216
H   63.974823   79.801689   87.848053
H   12.642796   46.745651   83.049995
H   30.261969   32.683105   39.403664
H   77.049881   92.140900   92.676819
H   85.049278   32.085476   11.360723
H   80.093620   38.042339    1.267519
H   81.544502   30.185925   52.236137
H   65.658783   55.074062    7.687188
H   41.778439   19.554369   78.602180
H   77.718620   34.150066   91.249931
H   76.149216   49.813515   52.842155
H   39.907112   97.499619   74.097107
H   36.105537   87.233871   35.350613
H   34.960541   17.392981   57.923447
H    3.806783   76.421898   61.156116
H   31.256678   36.426880    8.538019
H   99.526901   51.263985   99.690430
H    7.553142   23.915276   37.970802
H   62.078667   77.415894   27.208313
H   92.526474   27.028532   74.260384
H   83.340714   37.981426   59.934464
H   93.876274   29.489265   72.715012
H   66.188126   91.411484   59.164955
H    8.141625   25.371822   28.928720
H   84.551460   13.223195   71.422302
H   42.586555   59.080193   67.609344
H   38.558975   35.341095   26.860458
H   39.201317   46.095734   57.962433
H   25.549379   12.730721   46.506310
H   94.590263   65.276695   92.720055
H   48.788998    9.422611   62.520504
