100
TIME:    6.847, STEP:  6847
H   54.287430   94.118294   92.877396
H   11.378986   75.893578    9.830127
H   97.463089   66.504570   42.969143
H   82.625854   50.554413   64.857056
H   33.843094   21.574583   80.055344
H   21.839741   93.790230   56.828228
H   94.119324   23.679539   25.897470
H   81.725594   80.954193   79.525322
H   85.315544   27.982361   69.093773
H   87.743599   14.697598   75.805489
H   63.363770   41.746342   80.211433
H   94.508698   66.895370    5.552511
H    7.145462   47.537266   44.669121
H   16.058807   83.971504   78.300163
H   63.769661   58.425041   21.630787
H   26.221176   12.865448   64.680176
H   73.512062   34.846485   96.697762
H   47.487362   61.664017   62.171341
H   51.908009   65.595459   24.088772
H    8.049011   60.405872   82.508232
H   57.966034   74.577301   71.401558
H   18.808899   53.173477   36.192963
H   94.324883   38.936012   36.450623
H   82.873207   18.738253   98.555237
H   84.696724   43.159126   87.106544
H   15.323071   24.250736   46.550049
H   71.655235   57.857040   35.823261
H   54.811089   76.034523   93.097427
H   60.052345   70.305428   33.509949
H   63.537449   21.376854   27.705093
H   85.528160   36.039474   67.666161
H   98.081146   63.332905   65.402977
H   52.651241   67.523262   14.628789
H   67.403831   46.235977   83.298508
H   10.553034   41.256050   41.628876
H   67.835670   21.715244   97.899635
H   36.515541   53.783813   47.982090
H   80.992821   33.649570    5.616162
H   56.059933   32.230644   80.787323
H   18.282917   71.190781   76.742844
H   67.307678   91.121086    3.657820
H   23.186234   68.453659   29.511978
H   70.212555    4.561064   96.040642
H   42.139057   27.569296   50.198578
H   62.728180   61.742153   42.026798
H   89.742790   93.512894   10.977922
H   95.226852   97.200516   91.188850
H   56.605526   65.891861   92.231506
H   65.171700   65.380348   71.346054
H   69.493408   34.949154    4.789187
H   43.031445    8.609625   25.604076
H   37.891071   28.388489   24.573494
H   50.900753   61.709961    5.205088
H   18.132477   95.485962   33.954666
H   95.626175   58.644104   58.587200
H    2.123689    5.331344   59.538757
H   30.322001   91.978935    7.194121
H   16.214098   30.273176   37.193344
H   30.285370   28.074787   85.839775
H    7.188320   54.072208   68.865623
H   91.614281   60.152748   80.549667
H   55.904518   64.211166   85.548904
H   38.903301   40.056435   63.951111
H   13.210484   79.061600   41.244595
H    4.091019   13.985355   33.200718
H   80.725494    1.888748   51.031921
H   38.221268   85.080505   97.634598
H    7.396635    9.124202   93.528793
H   98.154427   57.804581   30.800739
H   69.101524   92.525810   87.315308
H    4.608565   29.531799   80.015663
H    9.411849   24.280464   57.933098
H   60.554077   79.627060   86.191223
H   79.478615   16.073200   96.328644
H   92.292717   38.403294   20.447235
H   87.524376   46.401737   35.213379
H   88.636322   33.175526   12.174040
H   53.664837    3.011209   92.573235
H   89.852089   33.406925   94.071938
H   63.741653   36.031624   31.045921
H   44.858170    0.117046   89.218582
H   55.089417   88.874573   14.184753
H   50.964134   21.624060   82.017151
H   21.212692   98.071434   38.049252
H   18.937254   20.600868   84.012581
H   93.705307   60.558075   17.259857
H   24.450441    5.519876   50.034782
H   66.147606   57.170918   24.585121
H   97.776718   12.942524   72.191170
H   60.972866   27.571659   68.978683
H    4.230125   43.149727   78.057907
H   84.907562   10.439401   63.984756
H   24.359241   32.963444   48.493599
H    9.003243   28.572351   88.481735
H   38.212639   36.417282   73.423218
H   59.455719   25.350832   13.792673
H   19.119753   60.614975   43.412308
H   25.061029   25.249271   41.427856
H   82.537865   66.369209   71.529915
H   64.503120    2.930449   38.147404
