100
TIME:    6.095, STEP:  6095
H    5.142727   63.079613   93.565872
H   32.145180   35.143177   62.416164
H   84.531204   12.402823   51.798855
H   82.499634   81.535858    6.074456
H   40.578690   61.298553    0.445688
H   33.503681   94.604927   82.354851
H   33.531620   72.902061   67.090019
H   40.831314   15.897401   48.571751
H    3.801197    0.283882   16.428015
H    8.284292    3.898828   46.361637
H   33.312973   11.488012   52.647728
H   23.211304   29.201283   59.080177
H   55.132278   93.013222   19.391777
H   53.292686   86.289375   21.071980
H   54.635551   25.597366   57.792713
H   56.457321   78.637978   27.103016
H   33.983559   85.107628   28.240240
H   31.405699   98.256546   88.241249
H   40.198170   34.046310   84.470322
H   28.307434   76.377235   31.308527
H    2.590778   49.441387   91.814888
H   46.713928   52.175186    0.232752
H    4.365594   45.051979   57.965515
H   52.745144    9.742159   54.406422
H   11.592549    2.794952   81.552834
H   18.761873   46.476692   17.271366
H   36.500084   89.115005   20.900534
H   18.263657   40.933693   68.243423
H   43.701027    2.078382   69.058289
H   34.701756   39.988670   67.923630
H   55.933578   68.605171   27.161934
H   50.599216   84.113235   35.019356
H   99.680046   22.542936   46.882690
H   35.630638   15.152232   14.978693
H   29.266701   98.183846   95.871185
H    2.465883   62.815331    0.263535
H   64.387856   81.322876   88.727577
H   12.075899   47.413364   52.547863
H   87.800140   48.616386   53.661369
H   89.112534   41.589916   17.575953
H   18.701519   65.314690   85.941261
H   86.560501   65.504684   91.120262
H   63.740643    0.049868   41.722191
H   90.157684   14.947226   76.672203
H   27.959984   91.415054   77.675766
H   99.450310   79.169632    7.922808
H   89.351852   56.305008   83.971321
H   56.564922   58.146500   45.701969
H   43.191780   27.662041    1.340865
H   53.708363   23.501150   57.370644
H   43.083080   81.210403   17.677990
H    1.338758   98.168655   73.937263
H   35.301022   57.349609   48.881428
H   35.545197    7.755054    0.772789
H   55.502129   92.741364   52.190105
H    1.187074    6.122375   85.138611
H   82.648170   13.678260   35.672752
H   72.209381    1.289649   56.562485
H   70.975662   96.297249   43.568855
H   56.810524   96.269318   90.254295
H   44.178242   95.126724   39.181469
H   82.594460   71.210678   19.573883
H   87.850105   91.370888   15.518005
H   61.573631   74.965164   61.663662
H   74.245071   74.047379   63.169865
H   26.920628   39.272484    6.567504
H   98.554764   59.080128   61.328934
H   59.342430   66.116859   57.578846
H   60.677845   11.838493   77.965424
H   53.867058   54.704086   88.898804
H   28.489513   80.697083   89.034706
H   71.405716   49.243851    2.868743
H    9.585556   16.823326    5.470123
H   96.036476   63.665104   41.008842
H   56.034214   37.330418   63.440445
H   69.750206   98.204643   85.813141
H   20.341095   98.271584   98.841057
H   18.334515   52.184021   51.044830
H   53.789013   35.615788   85.683998
H    0.621012   76.995979   95.831566
H   30.141985   92.337234   44.272541
H   98.659576   83.997726   77.094139
H    3.396211    9.048680   10.399931
H   69.474861   33.721825    6.733611
H   55.553444   67.640587   56.910477
H   11.012341   32.932953   65.038498
H   74.225990   60.196632   14.176626
H   54.053368   17.345247   32.382118
H   82.171249   54.812172   78.341560
H   27.458529   58.512943   42.098351
H   73.455162    2.544827   62.177044
H   29.267176   53.881409   49.658707
H   76.154770   10.398625   90.340286
H   36.325710   82.949776   37.775436
H   51.213371    3.775882   56.142460
H   97.343567   55.046478   52.634308
H   78.810051   17.459936   86.660110
H   26.512568   88.039185   56.522705
H   18.361115   63.123447   34.517174
H   17.795656   22.227684   10.589353
