100
TIME:    8.999, STEP:  8999
H    8.756715   96.770607   90.907181
H   51.945541   92.506042   45.521130
H   34.455441   21.327843   17.705784
H   82.987061   61.891777   46.897346
H   14.560400   94.066788   21.705597
H   88.468628   91.458809   69.947784
H   81.331947   68.994637   94.186684
H   12.582642   67.128799   81.935631
H   32.415276   21.075203   33.631908
H   28.965097   45.597309   60.067970
H   63.189972   28.335506   72.919563
H   12.373253   74.764030   52.370171
H   69.913269   17.290894   30.811859
H    9.505153   77.338448   42.068439
H   89.907845   66.197792   18.139389
H   39.693558   24.643639   86.044983
H    0.460858   77.184120   92.602821
H   93.502487   56.947578   87.576736
H   85.428574   55.874119   37.463543
H   50.065243   14.710199   29.026331
H   30.263298   60.339287   12.996355
H   25.123240   56.030289   52.930298
H   65.592583   21.438894   74.878204
H   82.921310   44.482391   38.730129
H    7.729146   72.495361    2.998191
H    5.175219   60.812973   44.036236
H   86.085304   68.401016   78.522079
H   73.231537   76.482605   64.234184
H    6.845329   65.551659   31.783642
H   46.054176   68.114151   98.783752
H   70.224602   29.013779   97.406860
H   33.959553    3.880977   66.181572
H    4.233633   10.072975    8.497945
H   58.331421   49.018005   92.638542
H   56.995506   78.319435   72.560074
H   54.905033   90.272324   91.135231
H   42.920074   74.971931   17.551168
H   92.047188   94.265648   57.474510
H   65.223473   85.345116   72.242523
H   15.588583   69.727837   46.057541
H   20.233477   64.957260   54.357021
H   41.827255   76.892746   39.375713
H   88.732574   17.470543   51.479252
H    4.728836   63.697227   60.607754
H   76.058670   76.846748   26.180441
H   61.963966   34.552959   19.720751
H   12.047431   14.234434   11.850298
H   56.736874   88.056778   25.384266
H   28.080147   87.153236   85.500458
H   14.672997   67.705833   54.323490
H   42.883678    0.847701   48.292068
H   42.480831   28.698238   83.307594
H   95.530937   74.187988   80.225327
H   68.292023   60.381607   28.916534
H   24.281345   47.234550   76.882217
H    4.804003    3.067649   86.279587
H   66.748077   29.884331   11.867309
H   55.971619   27.042944   81.761009
H    0.010475   19.008581   20.631922
H   65.176231   19.480854    7.657616
H   27.364717   60.074375   12.763855
H   79.525810   44.180649   88.178719
H   85.003036   93.207054   16.382019
H   60.986301   90.784378   82.816986
H   89.508759   42.108929   33.606770
H   48.526039   94.906761   78.275475
H   65.561874   59.478687    1.533108
H   58.743286   32.200508   96.406845
H    5.409781    3.175581   95.830414
H   12.790008    0.642095   82.756882
H   36.267910   83.107536   54.205849
H   32.221741   52.798241   15.669259
H   20.240265   73.182152   31.015263
H   32.106007   79.872658   68.463631
H   95.962631   41.565777   83.611938
H   38.400101   84.324699   90.410934
H   84.083817   46.914631   50.342690
H   54.762920   62.304024   11.430076
H   93.048851   27.085819   18.085390
H   58.205803   18.801100   45.649284
H   86.985802   22.381144   17.841377
H   16.574127    2.833173   34.147858
H   87.080788   57.613316   86.962196
H   69.264870   82.223000   41.497387
H   14.154663   85.978928   75.401566
H   44.180668   39.602150   66.701065
H   68.177711   49.051552   52.650261
H    0.757656   84.965919    2.272328
H   42.440434   93.122780   54.590584
H   70.707108   39.033592   45.908539
H   92.298820   59.348774   23.504539
H   44.133770   72.290298    4.996212
H   62.306751   97.528709   14.911067
H   16.984072   59.131824   33.586269
H    1.001948   43.654469   22.873137
H   37.202118   40.370728    2.638720
H   48.303825   84.113014   19.647564
H   20.907160   31.731354   98.224144
H   80.021507   75.662056   91.276466
H   98.174805   47.704144   30.837795
