100
TIME:    4.734, STEP:  4734
H   97.181801   87.889473   94.811905
H   69.733833   61.393921   76.600342
H   61.127831   14.486979   67.776772
H   82.271194   37.610283   80.676888
H   52.769043   52.208481   37.345627
H   54.613552   96.079399   47.570385
H    4.862108   81.000259   60.657970
H   47.803230   98.153778   73.534340
H   37.257179   31.138687    2.097778
H   45.472008   84.356590   93.067017
H   59.909882   56.725269   83.746414
H   75.158257   60.981590   55.957588
H   41.980728   75.315712   54.627930
H   20.681286   90.484352   17.499147
H   38.084084   47.167236   23.212769
H   11.179848   97.675980   40.078064
H   43.427071   95.088699    4.343046
H    2.301456   64.475639   35.420849
H   19.002045   76.951233   12.768557
H   64.972221    5.284227   38.645332
H   83.354454   84.932648   28.755699
H   16.233536   50.368439   16.134415
H   22.538307   56.120903   96.904037
H   79.201584   93.458557   55.485802
H   60.268951   10.729080   71.501503
H   24.966078   86.707306   45.254063
H   53.861397   45.690929   93.896278
H   33.100910   77.406830   23.252237
H   14.107583   78.597618   33.392677
H   82.516190   73.673088   59.727913
H    2.366787   46.562168   34.839928
H   64.664864   21.717484   61.013954
H    3.813273   22.120169   24.273062
H   78.124054   39.879822   72.315422
H   63.096909    1.065868   12.996567
H   84.156387   56.215961    4.544126
H   33.851456   31.167377   81.486069
H   68.325325   72.320168   56.505672
H   45.249844   78.271965   85.552734
H   17.303900   69.002831   10.495203
H   11.716572   18.619322   53.876690
H    6.155707   24.321913   25.207582
H   52.017551   91.888336   43.415421
H   77.061203   92.105011   43.600929
H   46.015949   45.111076   61.211811
H   17.012615   53.210621    2.392077
H   78.719040   82.288536   70.908745
H   56.492237   44.128632   61.491020
H    3.412036   40.379467   55.634476
H   25.163830    2.785856   52.561165
H   43.183445   12.606236    3.330746
H   35.195290   24.459185   63.285072
H    7.068776   49.458069   27.925283
H   67.060448   29.964622   40.714073
H   63.866882   73.466072   40.612385
H   99.489517    7.554014   31.470276
H   96.367630   52.949211    6.230219
H   73.552139   29.820063   91.617538
H   63.635986   38.792664   48.051765
H   46.622952   91.658600   28.964363
H   58.325134   58.417568   45.295448
H   30.895834   83.878677   81.156158
H   95.451363   84.243210    8.845879
H   68.116005   67.551270   98.609192
H   20.222269   82.747650   36.426258
H   10.528481    6.931799   26.094351
H    7.750513   12.030023   95.619064
H   53.356041   88.279312   92.515175
H   92.843338    9.631271   63.325905
H   26.297510   86.249023   91.764679
H   71.706505   73.298523    5.359128
H   83.626984   94.412537    3.222654
H   98.325165   84.143349   40.369423
H   25.994640   49.803272   21.875084
H   90.416634   35.388683   60.267422
H   37.573265   10.977297   77.390732
H   96.771164   16.234325   74.771858
H   54.392254   41.175930   75.881691
H   88.525703   39.613476   70.503166
H   67.360870   51.130726   13.082821
H    3.509033   78.257065   62.928936
H   96.522377   75.144180   90.922997
H   17.310129   86.288513   80.786316
H   75.840820   17.257566   31.039207
H   21.822824   52.771370   88.844276
H   42.339680   82.942757   70.526505
H   83.327873   59.152557   49.278961
H   32.155624   26.278814   46.511681
H   53.927841   30.590147   89.472786
H   47.789783   14.505058   93.446991
H   17.757500   29.054596   33.435223
H   28.566957   51.521133   23.730841
H   88.912178   69.563820   85.092026
H    4.786247    0.384227   46.007504
H   74.742622   25.686607   24.868221
H   84.930557    8.791452   22.931908
H   86.839928   39.355083   64.932266
H   24.242453   56.544861   80.281410
H   83.196350   57.256710   48.515488
H   33.257832   57.149204   41.699238
