100
TIME:    7.406, STEP:  7406
H   16.484838   42.855019   92.365616
H   95.941666    6.183171   45.077618
H    7.073269    6.721598   36.405567
H   82.719681   27.523907   34.214359
H   28.834833   66.380898   64.898132
H   13.169686   93.184624   12.186783
H   64.819931   61.427563   69.612000
H   37.789299   29.315090   28.199364
H   71.574257   74.236649   33.905262
H   72.475502   22.724184   97.692604
H   11.366943   64.239059   26.366430
H   73.176010   94.915314   65.761879
H   71.493660   13.710564   89.118736
H   88.380699   82.248512   20.839657
H   70.559273    8.492393   94.748566
H    3.743479   63.973145   18.278177
H   28.560738   71.819214   47.585751
H   59.441685   34.462921   42.796211
H   60.612530   89.043503   53.537434
H   92.987900   48.536846   20.567484
H   24.794174   18.926323   56.229473
H   72.400772   53.915558   88.588989
H   86.861427   34.389702   20.455965
H   30.933416   25.425508   57.040649
H   64.703194   98.826309   91.234901
H   12.687405    7.773560   93.944832
H   23.450899   34.617973   46.916088
H    7.645404    2.126750   11.574679
H   72.207115   21.022242    7.087046
H   84.972488    7.541088   72.144432
H    7.527217   86.165924   23.439857
H   33.376522   47.889950   13.653511
H   92.025398   26.623808   64.987923
H   91.022469   95.007088   59.748108
H   96.640633   98.931938   75.639450
H   16.428711   65.498505   96.142525
H   90.130814   33.312622   92.029266
H   57.887093   23.418240   45.061623
H   32.462620   20.052378   26.615646
H   65.630074   18.858152   20.722792
H   29.103479   10.302190   16.826628
H   76.076561   70.645782   58.048153
H   75.023285    7.914288   36.416645
H    6.446419   36.951927    4.855330
H   14.240528   39.688709   89.861153
H   82.526695    4.174269   13.248945
H   99.594040   27.602055   96.554008
H   56.639645   71.649384   26.818829
H   81.514534   19.085476   49.046654
H   81.230225   43.457493   65.705940
H   42.993061   54.642166   31.495941
H   65.060196   76.517410   87.878876
H   62.496830   64.951233   72.740822
H    5.188713   86.367752   58.622452
H   51.118393    7.630922   63.342487
H    2.819923    4.743330   40.509079
H   65.758698   75.849342   60.359688
H   74.589767   77.481941   22.793909
H   74.369926   51.697689   42.927040
H   70.298149   97.037109   52.966331
H   26.877050   34.158600   36.965736
H   36.064522   59.008072   60.257820
H   76.854591    1.910493   25.618805
H   51.597187   82.106689   26.066059
H   26.278900   69.340332   85.257256
H   46.385071   74.099174   84.084366
H   93.370850    4.408106   24.624277
H   68.782646   41.094902   20.252228
H   26.015793   17.638397   95.740540
H   80.436775   20.629282   86.135590
H   86.857964   91.497589   73.311348
H   63.400288    5.691133   98.903694
H   24.106363   51.980564   71.861389
H   67.170311   80.693237   63.114136
H   19.225653   39.220127   62.829594
H    0.737020   82.228416   97.600105
H   39.405964   84.792427   22.087641
H   79.927673   66.461403   23.444872
H   16.658689   31.764965    0.307282
H   36.327316    5.579199   82.887733
H   55.799599    5.900826   22.629395
H   97.037392   92.499680   67.417336
H   86.321159   30.972570   35.253296
H   59.669277   45.906857   86.993614
H   91.719101   85.631310   29.823717
H   80.842575   81.089691   56.078354
H   61.784779   64.875938   76.689980
H   75.137871   12.438032   18.789215
H    9.378415   81.818260   67.619270
H   11.548520    4.571423   88.963684
H   27.106770   73.333260   89.862961
H   26.267900   52.481155   74.638298
H   60.192356   49.737026   91.721931
H   63.026634   62.486290   26.173975
H   28.547768   86.345139   86.268890
H    5.626849    3.277687   84.919258
H   74.748985   92.695038   11.262788
H   23.982027   52.907223   30.206743
H   55.908257   68.783104   24.707012
H   99.227379   88.584091   84.296875
