100
TIME:    1.396, STEP:  1396
H   22.916445   94.001083   97.867935
H   62.437965   80.434593   66.059502
H    3.750835   74.338020    6.948454
H   81.710922   75.134605   63.645451
H   82.667206   84.653084   27.852989
H    6.368819   99.695702   16.996004
H   79.805428   55.603306   99.621788
H   10.163452    9.374300   80.018211
H   19.311653   52.073715   12.213380
H   36.690041   36.427849   62.358162
H   70.402512   22.413349    5.280046
H    2.557036   93.665138   93.560677
H   54.461868   77.247368   86.377831
H   85.960106    0.773174   63.477543
H   97.480263   45.329449   83.668259
H   45.394531   89.631767   17.160629
H   11.831051   74.316696    0.458310
H   30.976212   26.813354   51.149704
H   67.003716   36.917725   36.908833
H   54.905823   76.167831   11.378763
H   81.436020   17.240829   19.354805
H   96.205315   45.942497    0.387518
H   67.105415   83.268639   92.408188
H   89.337975   53.424564    3.394449
H   79.655266   75.458809   46.862259
H   40.257954   86.012436   58.324821
H   41.700233   84.447464   27.668325
H   14.751579   21.600262   12.916366
H   41.525711   75.748108   91.183250
H   54.521893   56.288986   94.366997
H   71.016426   47.231018   98.945190
H   53.901432   13.943820   70.029366
H   68.691116   66.344261   23.559660
H   37.086082   45.787605   12.940269
H   46.072060   53.393288    9.736038
H   93.931183   94.146561   15.840806
H   13.693921   53.411964   18.464483
H    6.293116   33.403378   20.953701
H   87.961411   50.707512    8.326394
H   31.706163   81.494637   47.868931
H   39.839691    4.083405   75.233688
H    6.156670   74.512123   68.386551
H   23.265402   71.871338    2.308418
H   90.215706   36.166985   17.227850
H   35.563042   76.810684   75.569534
H   60.077175   89.543343   88.839943
H   50.820545    1.045887   39.551949
H   56.313969    9.756533   54.954494
H    5.838703   16.833008   88.787033
H   55.168377   51.997410   86.026817
H   43.438114   34.869133   68.136063
H   72.976036   34.200428   82.417221
H   37.837891   30.103210   21.791733
H   44.363400   84.428810   93.418900
H   29.624344   80.886093   12.252161
H   95.312943   11.064817   45.103668
H   84.751984   49.266090   88.758583
H   22.108562   45.052940   77.597488
H    0.377420   97.752319    4.311256
H   66.895813   35.089291   23.904015
H   47.761730   13.652194    5.553349
H   49.364380   14.951368   32.190163
H   68.923752   11.956467   37.787209
H   38.900101   49.388382   89.238472
H   87.731865   49.348385   25.567614
H   15.586630   72.873787   28.727766
H   75.564743   96.626984   34.461987
H   83.934410   97.375229   32.939472
H   26.478378   49.478668   72.678719
H   58.664421   18.357466   98.793549
H   77.702705    0.416449   45.404606
H   58.859623    5.194637   58.831268
H   15.969872   49.253384   25.952961
H   99.465385   61.039314   20.240166
H   29.479042   30.630041    7.223841
H   58.663952   97.042747    1.997187
H   93.702538    5.550734   15.735737
H   97.566940   59.440941   91.535355
H   28.466555   49.412937   33.254784
H   31.063156   32.924545    0.654632
H   38.200619   43.723919   63.424221
H   46.066647   53.344498   70.044754
H    6.127068   30.556604   62.861973
H   46.202869   31.619120   35.920815
H   84.355499   61.564949   12.425829
H   19.161114   60.334240   38.725838
H   60.390404    1.852349   90.109680
H   78.428009   93.527618   81.231636
H   84.653023   16.445333   16.778297
H   42.913429   51.841476   74.119942
H   81.152596   48.810940   62.942699
H   81.576820    0.499055   60.119835
H   74.854179   69.458359   26.913584
H   82.156624   97.909935   20.944168
H   32.457310   24.684273   48.164665
H    9.225510   40.603996   95.343536
H   51.794266   47.793957   56.903931
H   11.990783   28.123779   33.700684
H   42.209709   42.867901   28.114788
H   25.937729   42.846004   63.231148
