100
TIME:    7.902, STEP:  7902
H   82.942375   97.370262   91.911514
H   82.242935   33.061886   76.352371
H   15.599077   42.405075   30.582176
H   82.802933    7.087444    7.026472
H   24.390314    6.137417   51.449158
H    5.477395   92.647270   61.308456
H   38.826283   94.917847    8.399860
H   98.804672   72.224632   82.658531
H   59.381630   26.548199    2.683702
H   58.928139   29.846010   17.114525
H   65.230240   84.196823   78.588440
H   54.245590   19.776775   30.455566
H   39.865486   83.688187   39.827869
H   63.821373   80.719704   58.586849
H   76.583687   64.187241   70.893097
H   83.800537   20.591309   77.105743
H   88.675117    4.627593   92.738586
H   70.046585   10.327646   25.603977
H   68.338165    9.850537   79.669464
H   79.622177   38.005474   54.337502
H   95.360847   69.548950   42.769146
H   19.952776   54.574005   46.349976
H   80.239113   30.356539    6.264049
H   84.848389   31.359102   20.202267
H   46.962959   59.493111   94.897987
H   10.348782   93.152512   47.269402
H   80.681046   13.999539   56.758739
H   65.792900   25.278341   27.969893
H   82.992027   66.023239   83.640709
H    3.991530   95.264633   11.575108
H   27.048319   30.643597   84.197990
H   64.694389   34.187435   67.736351
H   26.962831   90.334816    9.671521
H   11.979804   49.551521   38.851868
H   84.296638   61.377739    5.815102
H   59.544971    4.347127   94.583443
H   37.703716   15.146803   31.111906
H   37.388191   14.340166   80.063240
H   11.524957    9.246653   78.549980
H   18.913715   72.425171   59.748489
H   95.206314   27.319647   28.512175
H   34.276512   72.590851   83.370995
H   79.291840   10.889599   72.242348
H   74.773483   45.277122   53.350468
H   71.215034   20.120716   32.305939
H   76.123863   13.633018   15.264021
H    3.471153   54.575996    1.315349
H   56.669918   76.758026   57.508526
H   96.015511   78.006111   29.259441
H   91.644287   51.006931   31.024170
H   42.959003    6.756159   36.725494
H   89.165421   30.491522   55.319794
H   72.782784   67.827209   43.935646
H   93.701660   78.277176   80.510147
H   11.625717   51.098915   67.558655
H    3.437690    4.221586   23.624069
H   97.205231   61.537575    7.533406
H   37.656174   30.641310   10.017070
H   13.488045   72.656700    4.849274
H   37.568054   35.162342   38.858910
H   58.164959   11.092510   98.294655
H   18.460518   54.391373   37.813850
H   10.526904   68.064728   91.606598
H   85.656181   84.808594   12.598403
H   45.967438   29.724371   31.448236
H   15.915855   49.441460   13.412183
H   53.576416   21.555576   48.571148
H   34.520683   69.461113   43.963898
H   50.737839   81.999016   64.634583
H   90.510262   45.540539   85.083588
H   71.108208   57.750275   67.362617
H   22.557198   89.222069   35.259754
H   91.765549   27.447374   59.144970
H   56.251858   49.301456   33.642944
H   43.117950   39.950474    0.436760
H   12.463475   14.016476   64.223640
H   84.452843   41.862740   30.883966
H    3.230327   34.030178   50.838551
H   40.442261   30.308056    5.842627
H   12.004010   78.559868   40.156776
H   65.509804   11.032174   52.274658
H   34.256424   95.716232   25.923218
H   17.693361   39.267490   82.489731
H   93.794533   88.350220   41.691280
H   67.568466   54.602184   81.742790
H   69.429489   99.306732   90.521957
H   94.911491   28.812706    0.341107
H   83.114922   72.748962   13.646515
H   19.673275   54.201317   63.562630
H   67.696716   84.166275    6.695447
H   47.405109    0.117671    0.337582
H   62.966877   89.785599   84.091179
H   91.987030   64.620049   30.078371
H   10.964037   92.578087   59.618496
H   19.970924   41.916985   97.666840
H   46.594406   83.690979   59.300362
H   35.378380   21.158764   82.737267
H   23.024630   77.449699   20.248674
H   32.279839   70.924950   83.162056
H   30.034945   75.854111   36.515644
