100
TIME:    1.655, STEP:  1655
H    5.401789   70.249405   97.630814
H   55.233421   94.476143   82.397179
H    8.202818   92.971825    3.907655
H   81.754395   64.464134   49.447796
H   80.347366    5.413060   20.830498
H    2.352376   99.415108   42.646053
H   66.230217   73.091972   19.876015
H   89.806557   31.780460   56.238220
H   12.944939   27.171997   95.910164
H   29.612295   40.146706   72.499382
H   46.310959   32.834843   80.331131
H   92.672531    6.647300   75.124474
H   37.987846   61.577583   60.634590
H   73.135780   99.974678   83.186348
H    0.630186   22.195843   71.219376
H   34.980942   66.978752   95.661880
H   91.007950   91.444778   24.039011
H   36.511024   14.218176   42.170700
H   71.038734   47.783821   50.553204
H   47.928520   70.666611   29.012705
H   66.066589   91.456543   12.325138
H   21.040165   46.284348   78.335182
H   63.647392   81.162209   84.998138
H   65.274086   56.530857   84.159653
H   70.391716   54.917053   48.773064
H   39.070370   78.294128   34.049500
H   19.365917   73.682144   32.807934
H   92.898117   33.689510   21.477442
H   47.157349   99.246857   78.939873
H   64.453331   49.878799   14.956409
H   81.204750   70.457077   78.449982
H   70.254913    6.788224   46.052422
H   86.933670   47.394295   46.892426
H   48.029243   22.051735    2.029332
H   39.634209   33.814949   25.506599
H   16.450531   14.492369   14.950231
H   38.535110   43.927101   38.872746
H   95.587959   28.662922   39.229847
H   76.318741   45.178627   83.503159
H    7.311293   57.248402   68.247147
H   22.140541   12.970416   81.335617
H   82.879211   86.135033   80.554840
H   25.496321   73.424484   21.016037
H   73.676476   40.508286   42.551037
H   13.096916   66.590744   97.732498
H   56.735737   94.483376   89.891182
H   53.555347   15.017905   41.765083
H   56.327801   12.423162   70.979958
H   13.408879   95.382896   78.456436
H   60.600437   55.939556   67.910728
H   43.418354    9.863787   70.866913
H   85.563240   10.167078   65.415604
H   43.210670   31.604980    6.749332
H   38.366199   80.204094    4.847776
H    9.004814    3.590671   14.449982
H   95.637009   10.792622   36.286697
H    1.172548   41.792809   13.391815
H    2.822540   20.593273   70.926468
H   20.803490    8.695914   84.428391
H   49.804943   54.997623   16.537437
H   64.099411    1.607900   85.358910
H   40.171967   12.540138   20.470428
H   86.490509   94.294304   20.018898
H   56.686195   50.797279   82.207817
H   98.011086   28.661663   49.688541
H   99.676155   59.998085   44.041866
H   54.784988    5.581496   46.966198
H   66.043587   12.188134   45.321171
H   39.387672   30.868576   56.434967
H   63.910736   31.384333   98.248169
H   69.478539   82.794334   42.298313
H   37.504848   96.598679   77.793633
H   99.082016   36.442890   19.311581
H   93.766563   44.648285    4.847023
H   41.965668   30.998568   26.858486
H   64.787361   13.642183   84.568901
H   17.217882   83.103012   20.317415
H    9.735240   42.504532    5.838405
H   40.881844   48.654148   36.143715
H   18.361343   18.818712   78.341499
H   43.269093   46.403393   78.904305
H   65.500580   55.035965   48.387650
H   22.514515   34.879791   87.530518
H   64.020576   53.782085   12.263985
H   71.744583   45.363617   87.318832
H   13.199482   69.847527   56.711510
H   77.688423   83.020935    2.459833
H   82.597397   72.791336   78.540306
H   90.027779    2.024915   14.659336
H   20.013931   41.184837   83.379539
H   91.751930   62.795185   68.412308
H    0.740209   19.977610   65.054359
H   91.472450   77.220139   46.950607
H    7.189233   13.620194   38.406822
H   27.978775    1.483970   54.116417
H   30.617828   30.376310   81.965927
H   31.235863   62.657528   42.008743
H   12.941739   30.329010   29.556400
H   29.871655   43.984348    6.420121
H   42.022476   36.192768   38.285957
