100
TIME:    7.396, STEP:  7396
H   17.161070   43.772072   92.374771
H   96.217850    5.641265   44.447048
H    6.901369    6.002184   36.522984
H   82.718002   27.935932   34.762531
H   28.924440   65.579353   65.169281
H   13.324773   93.195457   11.196449
H   65.344070   60.752285   68.829987
H   38.575279   28.449993   29.117561
H   71.820076   75.198105   34.534763
H   72.748634   22.580599   97.301064
H   12.297119   63.836689   27.329679
H   73.557632   94.414062   66.473701
H   72.131325   14.315823   90.112541
H   88.875847   82.279335   20.078625
H   70.437813    9.385643   95.229523
H    4.145580   64.847778   19.108294
H   29.364876   71.157745   46.675411
H   59.227833   34.949524   43.142815
H   60.456814   88.624039   53.010624
H   93.257370   48.749172   19.886637
H   25.387589   19.921883   56.500851
H   71.442062   53.902283   89.440582
H   86.994942   34.471031   20.742105
H   31.862562   25.305880   57.783371
H   65.060860   99.619308   91.161049
H   12.734554    8.068321   94.885841
H   24.313211   35.033699   46.717648
H    8.489158    1.659987   11.244117
H   71.989677   20.114992    7.559735
H   84.589035    7.788605   71.349449
H    7.133636   85.269165   24.231026
H   32.745113   48.166210   14.579262
H   91.321053   27.355429   64.087044
H   90.599953   95.923531   60.169403
H   96.889503   99.689079   75.031082
H   15.559446   64.715271   96.173958
H   89.171646   33.678833   91.241302
H   58.300377   23.601269   44.355980
H   32.884754   20.270235   27.584694
H   66.571999   19.794317   19.936010
H   29.786882    9.959096   16.591032
H   76.919304   70.606567   57.537670
H   74.937225    7.854301   35.694370
H    7.084933   36.784081    3.877596
H   15.107952   40.083225   89.005440
H   82.655785    3.983563   13.208319
H   99.515915   27.058193   96.458031
H   56.639034   71.546387   26.200085
H   81.222176   19.913647   49.445595
H   81.020264   43.305286   66.405098
H   42.993748   55.607590   31.390541
H   64.574203   77.445297   88.535309
H   62.289387   64.893250   73.321571
H    5.420265   86.530869   58.181168
H   51.914597    6.754552   63.257420
H    2.807468    4.753849   40.849503
H   65.124695   76.137886   59.408607
H   75.334396   78.426308   23.051516
H   73.581352   51.275097   43.694710
H   70.958092   96.268524   53.250755
H   26.246214   34.623611   37.745384
H   36.419441   59.101151   60.710320
H   76.175728    2.592885   26.304535
H   50.910465   82.052216   26.337589
H   25.881981   70.138977   84.326012
H   46.999390   74.596306   83.493088
H   94.173157    4.062389   24.141451
H   69.473412   40.523003   19.774170
H   25.517365   18.356934   96.367676
H   80.233681   20.127039   86.156799
H   87.175499   92.177979   73.431282
H   64.223747    6.023183   98.170662
H   24.758410   52.475178   72.117737
H   67.390495   81.326172   63.708313
H   18.743971   39.205402   62.071384
H    0.500598   81.587547   98.273018
H   38.497761   85.657906   21.910295
H   79.457855   67.115242   22.892580
H   16.179182   31.794338    0.195680
H   36.817734    6.123967   83.749245
H   55.603828    5.797372   22.031708
H   96.286964   92.434830   68.253975
H   85.688683   30.805334   34.300919
H   58.981335   45.051144   87.907005
H   92.206009   86.256920   30.793070
H   81.072678   80.722412   55.383926
H   61.116901   65.603020   76.213142
H   74.977043   13.238241   18.892899
H    9.170857   82.375053   67.701057
H   12.432672    4.982876   88.606171
H   26.697529   72.793251   89.651779
H   25.528002   51.729050   74.447716
H   59.551334   49.436962   90.948616
H   62.060219   61.879601   25.499689
H   28.720688   87.240829   86.039093
H    4.800881    3.672560   85.435768
H   75.542747   92.121155   11.837911
H   24.001329   52.412457   30.407511
H   56.384636   68.739922   25.544643
H   98.606194   88.840744   85.260162
