100
TIME:    7.783, STEP:  7783
H   90.989983    8.282939   92.020462
H   85.529526   26.613087   68.849503
H   13.553583   33.843597   31.978977
H   82.782959   11.990547   13.549475
H   25.456640   96.599113   54.675827
H    7.322925   92.776192   49.523033
H   45.062634   86.882950   99.093887
H    8.157845   61.929249   93.584175
H   62.306877   37.989746   10.174385
H   62.178413   28.137346   12.454739
H   76.299332   79.408569   90.051559
H   58.787804   13.811970   38.926170
H   47.453697   90.891449   51.653240
H   69.713631   81.086494   49.530567
H   75.138313   74.816910   76.616486
H   88.585159   30.999451   86.983673
H   98.244362   96.756577   81.905548
H   67.502655   16.117996   29.729012
H   66.484238    4.858078   73.399521
H   82.828873   40.532154   46.235420
H    2.422468   81.395203   45.998539
H    8.544129   54.416031   56.483932
H   81.827934   31.323904    9.668893
H   95.904770   29.935518   29.040199
H   51.219185   68.930237   94.019142
H   10.909863   96.660629   58.468323
H   90.942108   18.946314   54.397297
H   75.834251   19.723822   24.036425
H   80.404518   55.226521   89.266045
H   99.428680   98.209854    2.115206
H   22.364927   19.972618   93.612892
H   57.180630   37.474934   78.752785
H   18.580664   99.041557   98.951057
H    6.951638   60.457191   43.865280
H   87.258202   70.387718   98.574921
H   49.200382   95.026413   94.957497
H   26.290302   19.505167   21.735136
H   42.306274   16.518040   71.665184
H   16.548153   11.839155   90.082100
H   30.122169   83.565079   50.385338
H    3.339120   23.236830   25.708586
H   44.305153   72.124191   77.295341
H   78.267731   10.175764   63.646404
H   82.372589   43.279747   41.715755
H   81.537834   24.815456   22.122513
H   77.660027   11.363727   14.780565
H    2.540898   48.104500    0.172476
H   56.662655   75.532364   50.145473
H   92.536446   87.862251   34.006577
H   89.145752   49.195675   39.345001
H   42.967175   18.245153   35.470779
H   83.382111   41.534222   63.131348
H   70.315117   67.137207   50.846565
H   96.458038   80.218262   75.258865
H   21.100994   40.669891   66.547256
H    3.289476    4.346763   27.675110
H   89.660599   64.971245   96.215416
H   46.517258   41.879326   13.082360
H    4.102603   67.628761   13.984997
H   45.420464   26.015270   42.243553
H   50.658459   16.626400    7.572806
H   22.684059   55.499008   43.198593
H    2.447907   76.184967   99.766785
H   77.485100   84.160355   15.829385
H   41.243645   39.229046   20.365980
H   23.225796   55.357323    6.375747
H   63.123871   17.441437   42.825970
H   42.740791   62.655510   38.275009
H   44.806541   90.549599   72.097504
H   88.093437   39.563847   85.335983
H   74.886879   65.846909   68.789833
H   32.356579   93.173241   26.537294
H   99.524445   33.333630   62.196415
H   58.871143   56.832470   40.713654
H   37.385483   39.775249   91.414078
H    9.650126    6.389655   72.231300
H   73.645226   52.162842   28.773558
H   97.639816   41.810863   44.266277
H   34.736122   30.657597    4.514599
H   17.839680   85.042259   50.408760
H   63.180138    9.801064   45.162186
H   25.326908   94.944519   35.878597
H   10.166432   37.277378   71.157349
H   85.607109   78.167236   52.559727
H   73.362671   62.046040   93.278542
H   72.167709   94.936111   82.258270
H   86.963753   37.464973   94.666740
H   81.201073   82.270996   14.880348
H   17.203339   60.827156   64.535896
H   78.217438   89.061661    2.441605
H   42.535145   93.691582   97.824509
H   54.162083   80.835541   81.823250
H   84.358871   61.049442   20.875917
H   99.463295   85.358482   51.594494
H   22.028675   52.576614   94.932251
H   36.765503   88.390259   65.446831
H   44.824150   14.329953   89.581001
H   23.254328   71.561073   22.637808
H   37.948753   70.411079   93.128960
H   22.643747   78.908279   47.979671
