100
TIME:    2.493, STEP:  2493
H   48.730621   93.400597   96.863602
H   31.922966   39.911377   35.257618
H   22.607222   53.260223   94.072685
H   81.895050   29.939405    3.512605
H   72.841476   72.582458   98.110046
H   89.360237   98.507240   25.635740
H   22.312698   29.676857   85.408699
H   23.941414    4.278839   79.295311
H   92.345238   46.601654   43.161816
H    6.714216   52.179146    5.311416
H   68.362244   66.553802   99.611465
H   60.691917   48.651794   15.474634
H   84.682411   10.877501   77.344627
H   31.642403   97.391731   46.959133
H   10.824070   47.342224   30.935587
H    1.285608   93.682098   26.101061
H   23.633957   46.863075    0.335205
H   54.419029   73.465996   13.116863
H   84.094124   82.937866   94.704300
H   25.353310   52.871296   86.067696
H   16.338470    8.030743   89.579056
H    1.386688   47.393478    6.976269
H   52.458885   74.346809   61.022766
H   87.414780   66.581329   21.921654
H   40.419304   88.456207   54.955513
H   35.227917   53.324116   55.502213
H   47.104973   38.846104   49.437252
H   22.190092   72.804527   49.178120
H   65.378632   75.276527   39.326164
H   96.586723   29.138504   81.575157
H   14.170846   45.606823   12.141436
H   23.166573   83.632851   68.474571
H   45.961514   86.082848   22.386084
H   83.436073   45.254135   66.724915
H   18.802380   70.468414   76.534157
H   89.310776   80.323112   12.069989
H   18.910484   13.236670    4.904014
H   60.948906   13.325077   98.366417
H   39.843071   27.097601    2.722353
H   28.381029   78.797295   34.177990
H   64.870644   41.723797    1.078762
H    7.564570   23.744728   19.924505
H   32.714504   78.449722   81.545097
H   20.164152   54.554657   24.486639
H   40.406261   33.529804   69.443703
H   45.924442   10.466938   93.292488
H   61.208508   60.415619   49.388519
H   56.372555   21.051100   22.830605
H   37.902122   25.979298   45.027939
H   78.170830   68.692101    9.301708
H   43.354420   28.960794   79.702637
H   26.287348   32.407055   10.400280
H   60.594414   36.463989   58.081276
H   18.962132   66.534935   41.825043
H   42.292976   77.055283   21.559828
H   96.685532    9.911926    7.759201
H   54.296024   17.612846   93.092400
H   40.422699   41.454773   49.342239
H   86.894615   44.104519   20.093901
H   94.507141   19.407881   92.703743
H   16.960859   62.633961   20.022335
H   10.432037    4.738552   82.554428
H   43.331623   37.149803   62.528732
H   14.228785   55.355797   59.458706
H   31.272869   61.733334   27.729086
H   48.196236   18.338478   93.590965
H   87.550148   34.552547   87.423843
H    8.157230   60.114624   85.382416
H   81.153343   70.655251    3.874926
H   80.891663   73.534737   96.483582
H   42.869072   25.776163   32.244770
H   68.406982   68.787247   39.147499
H   44.443741   94.993492   97.823967
H   75.327904   91.617340   55.042152
H   82.368675   32.191456   90.383896
H   84.594215   67.351921   28.182671
H   93.303040   10.469851   35.139912
H   49.105999   87.709633   52.120152
H   81.060654   46.196003   45.494011
H   77.263893   73.181046    6.147056
H   59.668247   55.072887   28.989086
H   28.376076   60.508743   78.314186
H   75.533859   48.868622   67.345825
H   21.665829   25.490816   35.721802
H   30.941612   92.945175    6.084073
H   93.912842    0.625582   14.904859
H   33.656563   22.091522   42.419235
H   96.087540    5.698900   69.819801
H    7.418941   55.365730    7.803955
H   45.924084    6.705055   13.337193
H   26.046478    8.047055   86.109329
H   62.747707   82.997368   81.025154
H   45.239338    2.333122   11.780306
H   88.185555   64.453163   94.909081
H   13.488060   26.421753   73.373436
H   99.833130   97.286079   38.682388
H   64.719711   10.748599   93.814613
H   16.018568   37.464081   16.146175
H   89.952812   47.596638   36.223282
H   94.065018   14.668556   57.574249
