100
TIME:    3.917, STEP:  3917
H   52.431305   62.812469   95.559891
H   92.311043   17.117521   25.082838
H   47.084396   55.708504   77.363457
H   82.134064   71.269646   25.458529
H   60.086838   86.722328   59.498474
H   67.284065   96.964516   66.660515
H   47.679691   25.831989   96.767433
H   12.017822   27.472340   48.548557
H   57.340599    9.689846   53.526646
H   67.799385   72.625679   61.077583
H   35.905228   23.851292   62.443295
H    6.338036   20.029367   14.112814
H   94.102356   24.723618   35.811180
H   61.133980   93.002571   55.326466
H   28.147129   20.145115   62.487560
H   44.030869   69.133904    7.895721
H    9.125302   41.049374   29.968313
H   84.842369    4.216828   63.748173
H    6.277041   42.677139   69.723709
H   86.987938   22.634382   83.020226
H   31.836380   66.268494   50.927704
H   37.906952   49.283859   85.709564
H   33.446434   62.765511   20.280235
H   55.109764   83.659943   16.162128
H   89.490265   75.522247   65.467751
H   28.695749   10.896813   22.030439
H   24.311190   79.652847   77.689919
H    2.037332   39.272018   96.245506
H   96.341766    4.473138   72.013680
H   51.188049   93.893639   94.779266
H   70.215538   73.299889   99.478371
H   13.078868   44.287956   36.647728
H   46.266003   81.896187   50.671249
H   43.604507   14.752964    6.734743
H   83.404724   62.824944   63.244751
H   13.130461   92.186249    7.166133
H   55.489647   61.086899   17.109426
H    2.096580   87.267418   98.854210
H   79.735382   96.074028   64.725838
H   94.255989   45.487106   46.216045
H   67.552582   90.586273   34.628521
H   79.583481   87.655136   86.825623
H   44.980251   86.989029   84.402550
H   29.231565   78.416870   63.717285
H   16.885279   77.345612   91.298645
H   27.552982   37.627583   99.072273
H   72.336227   37.858177   63.066620
H   56.448605   35.713791   10.939644
H   79.527145    8.044395   88.223328
H    8.028720   90.355431    9.705051
H   43.245777   91.482109   94.717041
H   95.492218    0.270509   16.917614
H   90.124718   44.720825   75.376991
H   85.984489   43.297470    4.663519
H   28.916428    1.864286   33.662350
H   98.467270    8.413794   59.282883
H   44.571949   76.523232   28.526846
H   34.387932    6.975099   12.661888
H   99.203148    4.271061   10.772507
H    0.538203   28.861700   52.201790
H    6.787664   96.414330    8.996407
H   59.892632   91.483200   18.121643
H   39.985516   39.994438   64.870018
H   12.012403   63.102013   20.792812
H   87.794960   48.000095   60.342319
H   60.717628   47.547096   77.787415
H   73.300156   83.782867   56.175274
H    9.791843   41.555130   53.457851
H   52.126160   68.335693   14.564379
H    9.745207   45.156807   93.485046
H   97.649147   28.887512   15.160648
H   50.992035   21.527725   43.406384
H   51.596008   24.555729   61.319260
H   43.983562    1.503388   70.419304
H   51.024769   34.223072   98.332680
H   18.256533   58.616875   32.365467
H   22.592817   87.047165   60.323261
H   16.008114   94.597252   30.761087
H   49.346046   42.013264   61.388420
H    7.428122   95.625221   83.468224
H   87.525894   69.804825   14.099010
H   35.222008   69.808548   59.240479
H   65.627541   72.639618    2.974885
H   19.633921   47.345406    5.660110
H   61.604004    3.873023   68.043213
H   61.145290   52.933762   13.791718
H   28.762304   18.555122   10.321136
H   19.006620   91.689903   55.007553
H   36.973495   76.080055   96.154793
H   20.022875   48.120789   64.238144
H   84.322357   84.938057   16.181681
H   68.114761   90.081596    8.162935
H   36.540703   45.047173   21.912149
H   25.820545   50.828484   90.921852
H   88.867088   98.867821    6.096070
H   17.449768   41.052681   65.130775
H   51.689148   92.469368   11.918640
H   21.244276   49.588593   93.358696
H   22.116386   53.734943   16.946678
H   82.510704   78.115700   20.402704
