100
TIME:    4.487, STEP:  4487
H   13.884964   10.540550   95.038040
H   76.555580   48.008598   61.026802
H   56.882141   96.717262   70.675072
H   82.229736   47.786369   94.214851
H   54.981400   32.410339   44.042999
H   58.444660   96.346992   23.108545
H   17.807060   64.322784   41.342251
H   67.216942   76.783997   96.211937
H   43.328911   54.886658   17.645941
H   52.222145   80.810036   83.395966
H   82.885223   46.786625    7.539295
H   84.584328   48.600685   73.539604
H   57.742355   90.251945   79.171143
H   32.910561   91.245674   98.701813
H   35.080254   69.230499   35.086056
H   21.111897   19.279778   60.580994
H   63.289284   78.750427   81.857658
H   97.020531   76.494728   43.983837
H   15.154919   66.590469   99.756210
H   71.628136   10.529623   21.828409
H   98.011787    9.521763   35.459183
H   92.553406   50.040543   37.168762
H   25.836113   58.129738    3.971032
H    2.150567   90.496185   73.830017
H   69.103302   30.318047   69.677345
H   26.092043   94.007706   68.480400
H   75.160469   55.959354   88.996681
H   53.941158   65.877701   15.086923
H    8.736400   56.187618   45.068794
H   73.044891   79.786278   40.091835
H   92.646416   24.413780   54.381783
H   49.069073   28.541115   83.879997
H   86.415627   40.191628    2.021351
H   67.687912   62.515961   82.721413
H   69.236481   19.737480   97.956421
H   62.684849   36.870090    5.321230
H   10.161036   40.212875   62.023365
H   78.535332   76.839104   39.076298
H   55.676563   83.653984    9.488840
H   40.568161   92.125160   91.062134
H   28.596626   10.144902   48.057476
H   28.355148   13.236363   13.604580
H   49.889996   90.407150   25.574896
H   92.834137   87.966736   19.450174
H   67.440681   54.855621   40.075703
H   20.199238   48.499470    1.387977
H   76.789352   68.856102   68.538094
H   56.479046   41.584610   46.208046
H   96.191574   60.835285   65.488037
H   19.983448   99.026848   69.836647
H   43.202290   36.452965    0.726893
H   23.191969   47.379566   79.499054
H    1.945210   48.025879   42.271412
H   72.781670   33.995483   29.814545
H   83.533112   51.818447   38.511211
H   99.180466    7.813834   39.878738
H   80.707764   60.076241   82.738426
H   91.944473   53.146004   97.979477
H   44.156319   28.356194   67.014793
H   62.921650   72.674545   35.989632
H   42.744415   69.904320   64.552803
H   39.662224   86.177719   92.331009
H   78.683434    1.097860   25.783409
H   51.154434   66.205765    5.315594
H   10.418363    2.474326   13.423774
H   25.701454   19.210609   11.489894
H   27.568438    3.490937   83.694199
H   70.417946   74.153397   80.707146
H   80.534042   27.379120   78.816254
H   21.293325   73.826660   92.284790
H   79.549629   90.104141    8.322231
H    3.993976    2.610027   85.139183
H   14.430521   96.362190   46.703094
H   31.433056   65.434700   36.551201
H   78.506844   35.036289   41.543423
H   31.733324   95.147057   94.011673
H   74.346085   37.642986   70.403679
H   42.787746   57.327641   62.241722
H   76.679985   40.338993   67.748085
H   79.474182   64.583809   34.362083
H   98.676102   75.701736   48.166073
H   77.990593   73.531082   11.577192
H    1.686161   82.157776   57.263943
H   58.847328   96.121040   53.598083
H   33.850250   68.221550   12.787997
H   48.025097   73.870964   53.374146
H   66.831306   77.111465   37.501083
H   28.180319   46.054070   49.080200
H   48.802109   44.342842   91.492928
H   69.628311   24.667953   84.616409
H    7.649245   15.717327   28.219034
H   10.289865   32.945885   19.024466
H   73.078941   62.150826   65.991135
H   80.913589   85.402740   29.354376
H   79.012810   47.812057   19.193169
H   64.529388   18.544827   35.689705
H    6.445701   25.180172   79.137329
H   23.336027   54.441803   84.235008
H   94.962921   56.191990   69.204506
H   17.916437   63.486645   65.494202
