100
TIME:    6.546, STEP:  6546
H   74.643143   21.720942   93.152969
H   19.690979   59.583584   90.851601
H   92.286896   44.849068   46.503376
H   82.575333   62.955231   81.354736
H   36.539124   97.448196   88.216919
H   26.508419   94.116325   27.018230
H    9.894986    3.353971    2.358822
H    5.383606   54.913280    7.161222
H   92.714699   56.922195   88.039467
H   95.964882   10.375109   64.020119
H   91.362061   29.634878    9.206005
H    5.996696   51.807713   26.977253
H   26.352951   65.740990   74.578056
H   30.961605   84.899269   55.394527
H   60.113716   85.311852   36.105297
H   38.324005   39.191994   89.665527
H   97.716621   14.938548   69.296547
H   41.050419   76.310760   72.605995
H   47.220959   52.967583    8.231799
H   16.157768   66.797890   62.014732
H   75.827805    4.541678   79.572319
H   89.951736   52.773895   61.825912
H   98.343666   41.384026   45.062302
H   10.839817   15.137423   20.910250
H   95.462471   67.030411   84.883583
H   16.705961   33.143372   74.860146
H   97.609688   70.369217   29.850203
H   80.208969   61.984856   83.149216
H   53.507469   42.996075   47.738739
H   51.995502   28.826530    3.777207
H   73.683083    9.048495   91.480324
H   79.075745   71.650452   93.268074
H   31.448170   89.546196   87.512329
H   54.686104   73.820908   95.979492
H   18.044464   64.045998   23.314707
H   41.669949   98.139168   98.845772
H    7.645932   64.806763   24.264380
H   93.434975   39.158749   84.374550
H   68.765320   38.789299    9.956472
H   46.633121   99.368195   53.060810
H   87.879257   80.791664   96.566628
H   48.552795   67.273285   14.145299
H   67.622162    2.755383   74.297874
H   61.358028   22.517111   20.769163
H   88.838676   73.618942   16.269140
H   93.628380   87.771774    9.755064
H   92.875290   80.831436   88.299919
H   56.589008   62.791656   73.607315
H   56.373703   90.310585   83.351883
H   63.173885   30.367331   25.835245
H   43.052113   37.669800   22.431534
H   23.259716   56.320183   44.332130
H   44.656712   59.964661   22.686796
H   25.102196    0.395916   20.672993
H   19.592751   32.264809   56.026661
H    1.748794    5.647966   69.785507
H   11.240672    0.664134   78.566475
H   38.626617   58.698677   44.946152
H    6.546762   15.354793    8.946777
H   27.050552   30.935497   77.426781
H   72.627251   74.151260    4.019058
H   66.587593   67.012833   99.166840
H   18.467974   60.595863   84.591583
H   92.541611   77.421936   49.417652
H   92.144409   38.026005    5.169178
H   99.216492   16.851860   33.234451
H   62.370712   74.673004   83.102676
H   28.188911   91.909523   79.139252
H   83.154030   79.432526   49.679836
H   63.002533   77.387627   87.949127
H   14.167057   50.011520   83.625679
H   34.219692   34.276123   35.889137
H   80.179520   94.515411   93.907288
H   86.106163   35.123196   14.212591
H   77.779167   37.973858   97.628799
H   80.409981   27.109570   55.465752
H   61.299404   59.228725    6.835885
H   39.523312   22.692980   75.951546
H   75.416618   34.291058   90.714531
H   78.503220   52.428261   56.977409
H   38.967781   97.003036   71.228210
H   32.503853   86.922592   39.366116
H   31.924286   16.590246   53.352036
H    0.504481   72.314476   65.540154
H   33.593895   39.429443   13.191004
H    0.631581   49.500679   96.357178
H    4.347286   27.405266   35.681984
H   61.306694   81.256714   27.705994
H   91.530380   29.700956   74.652962
H   87.584366   39.956402   58.218765
H   91.911919   26.897408   71.701340
H   62.636608   87.801376   58.250526
H    5.064769   23.931515   25.216806
H   79.912300   10.311177   68.185730
H   43.416389   63.379875   66.506317
H   34.594376   37.236603   29.339706
H   43.011375   43.341095   60.722931
H   25.642031   10.355660   47.469810
H   96.876884   65.069420   96.740318
H   45.807674   10.654362   67.144402
