100
TIME:    6.933, STEP:  6933
H   48.471512   86.231636   92.798660
H    9.004131   80.553398   15.252696
H   98.942001   72.691856   41.959362
H   82.640289   47.011322   60.142895
H   33.072800   28.467863   77.723465
H   20.505833   93.697060   65.345322
H   89.611725   29.486927   32.622784
H   74.966164   88.394684   71.629478
H   83.201500   19.713837   63.680676
H   85.394661   15.932594   79.172737
H   55.364258   45.206760   71.927162
H   91.226746   71.206131   99.431084
H    1.657607   42.336140   36.123711
H   11.800703   83.706429   84.844383
H   64.814217   50.743095   17.495213
H   22.763054    5.343433   57.541504
H   66.596474   40.534458    4.526696
H   49.326488   57.479233   59.190552
H   53.247166   69.202850   28.619335
H    5.732224   58.579868   88.363518
H   52.862671   66.016144   69.067055
H   27.053802   53.287643   28.869263
H   93.176659   38.236580   33.990143
H   74.882881   19.767061   92.168488
H   81.620796   36.338676   87.741676
H   14.917583   21.715786   38.456711
H   64.239677   54.281799   37.529850
H   47.554970   80.048714   95.939774
H   61.922310   78.108101   29.444788
H   66.835144   19.248375   34.541740
H   88.912468   43.750946   60.862114
H    3.511201   60.957066   57.441521
H   58.709270   61.230995   22.376348
H   71.037468   38.354568   79.675369
H    8.412580   34.744637   46.861496
H   75.311592   28.451382   97.629311
H   44.763725   50.634399   54.758579
H   77.437920   32.075520   11.684722
H   52.429577   30.357031   72.453186
H   10.182690   63.140018   83.508835
H   61.430084   94.072350    5.683786
H   15.938643   68.790909   33.902317
H   70.952667    5.076944    2.252684
H   36.647923   29.012777   58.606857
H   55.268661   58.349316   49.385929
H   88.632622   95.153214   11.327311
H   95.898727    1.877501   92.014259
H   56.610775   66.777634   97.552704
H   67.685982   58.257954   67.915817
H   71.299072   36.258129   98.776100
H   43.025539    0.306712   26.510517
H   42.071262   20.408005   18.928169
H   52.684765   62.208618    0.210290
H   16.141129   94.083160   37.749710
H   88.778824   66.180855   59.318783
H    2.230802    5.240880   56.611115
H   35.773769   89.497459   15.373575
H    9.810458   22.151297   34.978256
H   37.067764   31.709080   79.237816
H    1.513306   60.682697   66.419579
H   97.039146   56.153648   73.844040
H   52.852211   63.410690   81.658066
H   44.742184   34.188026   58.053833
H   19.115963   79.530075   38.909435
H    7.504607    7.116669   41.209415
H   75.442352   97.613487   56.116913
H   31.321394   88.054077    1.786698
H    1.455889   14.042865   97.640091
H    2.440559   51.625168   25.406712
H   70.844200   96.851006   87.134216
H    1.877546   23.680450   78.984230
H    2.334371   21.418762   64.235863
H   54.946808   75.374039   83.986633
H   77.585030   10.630291   91.218719
H   96.439445   38.525990   26.966850
H   89.557060   51.913868   29.426840
H   96.446869   25.731754   13.699209
H   57.705273   97.387993   97.322289
H   93.976509   33.154316   95.031197
H   59.524063   31.346825   23.636925
H   46.541138    1.006961   94.358688
H   61.542435   89.432281    6.989995
H   56.404091   23.062292   90.206940
H   27.129326    5.430691   30.194744
H   14.749846   15.221251   75.675819
H   91.726425   63.717331   23.231934
H   30.194185   99.266884   54.135582
H   67.530724   50.288792   23.693443
H   99.561386    8.154266   71.487801
H   53.368999   24.033161   72.053299
H    7.749678   47.793144   79.874069
H   91.270691   16.907322   65.623756
H   29.872028   35.543995   55.144112
H   17.314606   33.789879   94.280594
H   36.725853   28.713684   75.399475
H   66.558960   21.955042    9.350523
H   12.293636   65.550369   38.466415
H   24.895029   29.504589   39.701584
H   78.441002   66.740578   64.326942
H   69.845314    0.723634   29.862476
