100
TIME:    5.152, STEP:  5152
H   68.913734   49.556648   94.429214
H   58.189339   84.043182    2.955154
H   68.314758   44.559143   62.871220
H   82.341354   20.388138   57.765617
H   49.025055   85.713028   26.012455
H   48.130138   95.626549   88.965996
H   82.953529    9.224567   93.346115
H   14.949257   34.315289   35.154469
H   26.981941   90.949509   75.787621
H   34.048698   90.358452    9.435087
H   21.028534   73.544510   43.482632
H   59.205482   81.933891   26.203718
H   15.307205   50.039009   13.093262
H   99.985115   89.195961   49.310287
H   43.167488    9.830222    3.119504
H   94.372437   61.116287    5.379787
H    9.813948   22.735905   42.395233
H   11.239886   44.138760   20.930857
H   25.512566   94.484833   34.789204
H   53.711281   96.406776   67.104744
H   58.549736   43.319855   17.410522
H   56.307602   50.923340   80.537903
H   16.957405   52.721336   84.944962
H   40.362942   98.461151   24.440430
H   45.318512   77.580673   74.588539
H   23.060598   74.352783    5.947529
H   17.815775   28.313934    2.188638
H   97.831520   96.917664   37.070549
H   23.196648   16.521864   13.634579
H   98.544540   63.327690   92.958199
H   18.818333   84.045212    1.769096
H   91.057747   10.169396   22.317574
H   33.256916   91.537880   61.929802
H   95.785217    1.572754   54.705284
H   52.706863   69.468369   38.448669
H   20.492117   88.955132    3.229222
H   73.942261   15.858166   14.422627
H   51.049244   64.672737   86.003914
H   27.604626   69.163933   45.044952
H   77.932152   29.870037   43.383213
H   83.149277   32.960648   63.724590
H   68.588066   43.082657   44.842793
H   55.618031   94.394958   73.607521
H   50.370174   99.118896   84.471237
H    9.758242   28.620308   96.980614
H   11.619221   61.183338    4.091273
H   81.984665    5.020638   74.920616
H   56.514561   48.433899   87.354515
H   15.629578    5.761902   38.958740
H   33.930630    9.148085   23.326805
H   43.151554   72.251053    7.737267
H   55.509773   85.672424   35.842979
H   15.739148   51.881775    3.648356
H   57.380562   23.143166   59.159752
H   30.585503   10.101245   44.168217
H    0.012473    7.114319   17.240570
H   22.866669   40.888084   45.985573
H   42.426651   90.344582   80.851181
H   96.604729   56.453827   15.960781
H   19.040539   23.787739   17.075447
H   84.692505   38.980083   12.706088
H   16.061796   79.987991   62.244576
H   23.829222   55.720016   80.182343
H   96.817787   69.828278   87.262421
H   36.813957   49.362888   75.352257
H   84.850578   86.151970   50.809776
H   74.213776   26.481152   15.800735
H   24.482048   12.185420   12.497993
H   13.676144   79.596474   37.108421
H   34.765610    7.272181   90.884491
H   58.433525   44.858246    0.344570
H   49.160706   80.540009   33.826828
H   71.071228   63.465393   29.650902
H   16.794125   23.349274   97.039757
H   10.570567   35.985043   91.954193
H   47.456245   37.767563   49.264660
H   34.722935   80.005562   82.164162
H   74.030655   13.843327   98.964302
H    8.571166   38.385677   75.165611
H   46.861420   28.364090   77.071869
H   11.688463   82.581467   87.912239
H   27.886307   77.874039   55.970604
H   43.750847   93.278992   20.593832
H    4.599752   53.027023   92.861786
H    1.468943   26.624046   48.323738
H   32.718204   98.295021   99.553574
H   11.245169   28.760559   69.210754
H   38.884598   92.813446   42.164955
H   62.602158    7.317488   86.054085
H   10.832257   97.306808    8.389915
H   34.863762   51.623974   42.262615
H   59.494724   82.959152   31.693991
H   15.706431   82.107185   17.416645
H   45.188599   25.739157   74.190620
H   67.516151   88.244621   34.472569
H   19.455704   92.285309    1.341248
H   53.660667   63.343395   40.892929
H   25.776403   60.103882   73.590706
H   63.283691   59.058544   13.502502
H   59.220188   46.424305    1.431560
