100
TIME:    9.203, STEP:  9203
H   94.961090   78.062721   90.720413
H   46.311386    3.560004   58.384747
H   37.962002   36.004097   15.311155
H   83.021301   53.487236   35.714638
H   12.732412   10.418148   16.174942
H   85.306030   91.237801   90.149811
H   70.639503   82.768745   10.139767
H   96.548645   84.778336   63.205887
H   27.400566    1.460951   20.790762
H   23.392420   48.526447   68.055397
H   44.214386   36.543594   53.268501
H    4.586601   84.989555   37.848991
H   56.904907    4.943651   10.539017
H   99.404510   76.709663   57.593494
H   92.385628   47.975502    8.329422
H   31.491299    6.800908   69.111389
H   84.056435   90.678078   11.173750
H   97.866623   47.020882   80.504471
H   88.606735   64.432663   48.210461
H   44.569607   10.377970   42.915611
H   18.157646   40.029869    7.459101
H   44.680920   56.301102   35.557800
H   62.868889   19.780554   69.041718
H   63.967510   46.922821   23.579042
H    0.433186   56.317436    4.504070
H    4.212976   54.799057   24.838377
H   68.494911   59.921017   82.568710
H   56.018517   86.004639   70.976494
H   11.281398   84.060326   22.140987
H   53.876625   63.065201   15.000763
H   78.252495   47.306232   81.267029
H   46.840290   98.244644   47.296257
H   18.603523   95.147568   26.875875
H   66.950745   30.322571   84.044121
H   51.918541   62.873756   84.970779
H   72.638611    6.250615   90.493996
H   62.485535   67.501228   33.625629
H   83.614632   90.533409   71.870476
H   56.612148   80.900047   52.473175
H   96.373962   50.629761   62.108658
H    6.292031   71.957932   59.163174
H   24.635300   77.692734   49.789562
H   90.488190   18.694649   66.213890
H   91.704384   67.121437   80.554268
H   58.362938   68.800179   43.638279
H   59.332100   38.443951   20.549532
H   13.642348   25.329206   13.809412
H   56.749325   90.157913   38.006641
H   34.042702   70.256996   77.363617
H   18.954763   70.812401   40.059116
H   42.869671   81.153023   50.443008
H   52.395077    9.768566   69.916359
H   99.761223   75.370850   68.378036
H   63.566948   57.052475   37.918465
H    8.038013   65.112778   78.616043
H    5.058084    2.853061   79.334946
H   79.681732   23.998039   31.269430
H   40.781189    7.777092   76.506615
H   16.099796   27.628683    4.970682
H   51.714825   35.161549    1.855371
H   40.234280   50.588139   96.859413
H   72.285454   42.281845   78.949287
H   98.851852   79.286644    2.393127
H   74.994202   91.895645   77.279327
H   97.605133   25.815014   52.604145
H   35.993935   84.765282   90.337547
H   49.194809   66.531281   11.382660
H   44.651672   43.867256    6.159225
H   15.577379   88.517456   83.036835
H   16.933136   10.888235   82.324203
H   29.788898   69.227592   51.759193
H   15.422799   46.024803   30.622330
H    6.939051   63.090618   25.784214
H   27.615803   66.960793   56.342415
H    5.789269   41.866161   99.079407
H   43.223373   97.398430   76.683517
H    2.611240   29.257313   53.961311
H   64.345711   48.965706   22.696831
H    2.831993   26.486607   20.362398
H   48.201286    7.687937   28.074455
H   90.979515   24.491617   30.034187
H   31.882065    4.157472   17.081289
H   99.983315   61.024937    6.389585
H   83.300453   99.679543   22.865765
H    4.221741   73.216476   55.625992
H   39.485020   47.096199   80.867386
H   81.802406   34.219093   62.377739
H    4.038267   68.642433    0.157241
H   46.673832   81.764198   52.922127
H   52.670605   30.639946   53.200256
H    0.647354   70.364288   27.812645
H   59.227703   87.633255    8.882684
H   75.383591    3.649341   30.686701
H   36.699539   71.508286   47.341702
H   97.474976   25.380817   27.560225
H   54.051666   32.314819   92.101822
H   32.111076   95.820229    7.914938
H   20.513391   41.824604   94.127708
H   70.303368   76.542976   74.190346
H   10.845987   42.469982   11.185272
