100
TIME:    5.598, STEP:  5598
H   38.752113    8.656894   94.020889
H   45.871529    8.210233   31.076920
H   75.984467   76.646698   57.634449
H   82.416214    2.011803   33.317146
H   45.030273   21.461809   13.920778
H   41.212429   95.143364   33.134792
H   59.577557   39.341763   28.223970
H   79.894531   72.899399   94.203667
H   16.018410   48.068558   47.713287
H   21.861609   96.762352   26.901197
H   79.542709   91.490402    0.522185
H   42.181725    4.289543   94.457756
H   86.846970   23.068565   68.776299
H   77.901527   87.821266   83.250389
H   48.591408   69.991592   81.682098
H   76.440155   22.107620   68.358124
H   73.949226   52.233997   82.996368
H   20.777258   22.438927    5.470644
H   32.459087   13.195155   58.284916
H   41.696312   86.933632   97.470528
H   32.083458   98.918030    5.305382
H   99.066055   51.515411   42.556854
H   11.001948   49.094048   72.184799
H   98.922722    3.796602   91.316879
H   29.366890   42.210808   77.882362
H   21.027479   61.169952   64.006012
H   79.357544    9.773983   11.038515
H   60.197895   17.735405   51.814491
H   32.894371   56.986240   92.552338
H   15.645735   52.289299   28.413151
H   36.371635   24.039307   66.482994
H   19.218204   97.847168   81.029167
H   64.674065   58.905891    2.109005
H   14.630094   60.699425   35.915520
H   41.620834   35.754318   65.605896
H   59.262089   23.888222    1.826562
H   16.720387   99.523560   49.565777
H   32.616764   56.509914   17.477421
H    8.777759   59.445793    1.824868
H   35.924572   88.117241   78.473961
H   52.667801   48.262634   74.232155
H   28.503994   63.100800   65.793571
H   59.459690   97.069489    5.823992
H   21.892895    6.605166   28.079023
H   71.069862   11.024653   35.146832
H    5.863995   69.690109    5.903670
H   85.469040   29.276802   79.201225
H   56.538380   53.027557   14.950400
H   28.665359   68.822571   21.167007
H   43.284679   15.936491   92.133224
H   43.117527   29.193048   12.438962
H   77.185036   44.287045    6.562681
H   24.991093   54.467834   77.746666
H   47.053337   15.864785   78.841026
H   95.073448   49.187351   47.962238
H    0.568020    6.645170    2.057678
H   51.139786   28.019035   88.403755
H    9.217195   48.225838   69.363632
H   31.779058   75.298210   81.722038
H   89.608841   58.070042    4.390144
H   12.826500   18.239437   77.931328
H    0.233930   75.836685   42.063103
H   54.109478   25.285803   49.598785
H   27.443810   72.257812   75.155579
H   54.518257   13.740791   16.886423
H   57.451958   63.979912   77.180779
H   38.430878   41.899441   37.334366
H   93.673470   37.693455   33.819370
H   35.905956   47.549751    9.134952
H   43.799805   29.704865   89.945343
H   44.271446   14.512836   94.995430
H   12.386795   65.738220   66.482376
H   41.991669   41.405624   18.214394
H    6.977306   95.121910   70.539452
H   32.073772   36.621349   25.764717
H   58.001244   66.353447   19.255438
H   75.217644   41.348782   90.051643
H   94.984543   84.681206   23.595926
H   29.957493   37.075634   80.140373
H   24.992619    4.069358   38.648468
H   20.415995   87.195541   14.568576
H   61.356026   80.774689   18.668108
H   71.961754    0.737664   63.069859
H   35.283508   91.191818   52.125538
H   79.752769   98.725838    5.089121
H   22.452229   14.677192   30.525452
H   41.032494   96.332573   90.477692
H   46.060234   57.116833   37.535187
H   71.857529   82.484795   82.406380
H   71.400970   78.959396   24.332907
H   53.115898   75.706604   51.681316
H   92.494209   16.502542   40.190559
H   44.295990   95.486641   51.906513
H   88.292915   52.797314    4.263710
H   59.805611   48.295467   44.721531
H   56.293442   74.672882   78.304855
H   18.259535   88.938576   15.243276
H   27.413107   63.901306   66.451820
H   42.037170   60.981075   76.146339
H   86.924469   34.980991   58.468418
