100
TIME:    7.677, STEP:  7677
H   98.158440   18.003460   92.117508
H   88.457077   20.868778   62.166050
H   11.731546   26.217712   33.223583
H   82.765167   16.358017   19.359779
H   26.406477   88.102745   57.550003
H    8.966842   92.891029   39.025093
H   50.617702   79.725815   90.804550
H   16.489235   52.759220    3.316472
H   64.912560   48.181183   16.846695
H   65.073616   26.615343    8.304005
H   86.159195   75.143402    0.262391
H   62.833809    8.498909   46.471489
H   54.212944   97.307800   62.186764
H   74.962196   81.413216   41.463627
H   73.850838   84.285355   81.714630
H   92.847092   40.270569   95.782501
H    6.768373   89.745010   72.255951
H   65.236633   21.275986   33.403259
H   64.832840    0.411042   67.814529
H   85.685257   42.782810   39.018440
H    8.712646   91.947327   48.875141
H   98.381805   54.275314   65.510818
H   83.243187   32.185677   12.701779
H    5.753565   28.667452   36.912895
H   55.010445   77.336029   93.236305
H   11.409649   99.785507   68.443474
H    0.082219   23.352602   52.293827
H   84.778648   14.776099   20.532663
H   78.099678   45.609272   94.276848
H   95.364075    0.833388   93.688469
H   18.193167   10.467495    1.999259
H   50.487698   40.403294   88.565742
H   11.114063    6.796869   89.401741
H    2.472768   70.171486   48.331009
H   89.896233   78.413414   92.126221
H   39.985874   86.724136   95.290688
H   16.123531   23.387407   13.382783
H   46.687088   18.458149   64.184563
H   21.022778   14.148443    0.354397
H   40.105843   93.488022   42.045052
H   10.583258   19.600035   23.211271
H   53.238228   71.708511   71.883415
H   77.355499    9.539911   55.990292
H   89.141541   41.500572   31.352036
H   90.732933   28.997326   13.051552
H   79.028374    9.342341   14.349924
H    1.712267   42.339973   99.155006
H   56.656185   74.440598   43.586788
H   89.437447   96.641670   38.235352
H   86.920166   47.582287   46.756882
H   42.974453   28.479048   34.353134
H   78.230591   51.370632   70.089539
H   68.117027   66.522583   57.002510
H   98.913300   81.947296   70.581253
H   29.541157   31.380199   65.646347
H    3.157453    4.458264   31.283600
H   82.940170   68.029808   86.133965
H   54.410324   51.889610   15.812787
H   95.742271   63.149937   22.122700
H   52.415047   17.867458   45.258446
H   43.971996   21.555927   15.837276
H   26.446205   56.485641   47.995087
H   95.251793   83.418121    7.035522
H   70.206657   83.582932   18.707592
H   37.035896   47.695492   10.494391
H   29.737171   60.626915    0.108003
H   71.628326   13.776863   37.708416
H   50.062904   56.593376   33.207596
H   39.523201   98.166084   78.745148
H   85.940636   34.240070   85.560806
H   78.252754   73.059036   70.061134
H   41.085049   96.692772   18.767557
H    6.435911   38.576534   64.914368
H   61.204288   63.540768   47.011932
H   32.279251   39.619167   83.377060
H    7.144083   99.595970   79.364174
H   64.018272   61.337723   26.893698
H   92.659744   48.741558   38.411983
H   29.653341   30.968952    3.331650
H   23.037701   90.816490   59.540779
H   61.104973    8.704446   38.826706
H   17.372784   94.257111   44.746166
H    3.461647   35.504673   61.062721
H   78.314110   69.096680   62.240864
H   78.523895   68.677269    3.554013
H   74.606796   91.042953   74.897339
H   79.884254   45.172035   89.612267
H   79.496300   90.752808   15.979393
H   15.003228   66.729164   65.402840
H   87.588837   93.422256   98.652298
H   38.197193   87.967491   95.585983
H   46.319157   72.863220   79.803078
H   77.564041   57.868763   12.678775
H   89.218483   78.927574   44.447063
H   23.861629   62.071747   92.496399
H   28.010345   92.576172   70.921837
H   53.238029    8.246995   95.677101
H   23.458933   66.315742   24.765944
H   42.998375   69.953346    2.007217
H   16.059992   81.628799   58.191326
