100
TIME:    1.417, STEP:  1417
H   21.496359   92.075272   97.848709
H   61.853813   81.573097   67.384178
H    4.111758   75.848869    6.701859
H   81.714447   74.269432   62.494289
H   82.479111   86.336327   27.283577
H    6.043157   99.672951   19.075705
H   78.704735   57.021389    1.264027
H    8.512894   11.191044   78.090157
H   18.795433   50.054657   10.891467
H   36.116142   36.729378   63.180557
H   68.449142   23.258335    3.257227
H    1.755478   94.717766   92.065849
H   53.126137   75.976845   84.290520
H   84.920296    0.708431   65.075600
H   97.735649   43.453785   82.658890
H   44.550186   87.795036   15.417480
H   10.142721   75.705460    2.370296
H   31.424980   25.792130   50.421677
H   67.330879   37.798759   38.015133
H   54.340096   75.721786   12.808542
H   80.189850   15.150154   18.784832
H   98.218925   45.970215   98.599464
H   66.825035   83.097847   91.807373
H   87.386848   53.676426    1.834764
H   78.904167   73.793190   47.017189
H   40.161663   85.386627   56.356552
H   39.889297   83.574600   28.085051
H   12.979736   22.580471   13.610507
H   41.982330   77.653412   90.190544
H   55.327145   55.769241   96.036461
H   71.842506   49.114212   97.283417
H   55.227390   13.363633   68.085289
H   70.170242   64.807777   25.451506
H   37.973366   43.863075   12.055590
H   45.550072   51.805855   11.014732
H   95.757019   95.796158   15.768508
H   15.708093   52.642921   20.119207
H    5.425179   33.019016   22.435551
H   87.017410   50.259224    6.313607
H   29.728201   79.528770   49.521252
H   38.404625    4.803963   75.728439
H    4.269310   75.454521   69.373169
H   23.446287   71.997269    3.825255
H   88.874687   36.518982   19.281115
H   33.741531   75.982040   77.366531
H   59.806248   89.943886   88.925179
H   51.042286    2.178764   39.731392
H   56.315090    9.972746   56.253857
H    6.452515   15.093849   87.949417
H   55.608814   52.317043   84.557945
H   43.436512   32.841743   68.357483
H   73.996620   32.251705   81.038712
H   38.273521   30.224976   20.572079
H   43.877140   84.086266   94.345596
H   27.952477   82.726990   12.430363
H   95.339218   11.042747   44.388779
H   86.083389   48.660149   90.755852
H   20.544762   43.069771   77.056595
H    2.033595   98.639603    2.699070
H   65.509933   36.703480   23.306725
H   49.086407   12.675630    3.916048
H   48.619049   14.755863   31.239914
H   70.348083   10.524364   36.346535
H   40.342216   49.502617   88.668419
H   88.565315   47.671070   27.523306
H   14.296600   71.829811   29.969450
H   73.879898   97.353088   35.475842
H   82.483803   98.576218   33.943394
H   27.525078   47.969742   71.361732
H   59.089798   19.413698   98.749329
H   77.035881   98.987602   45.152744
H   57.128155    4.497652   60.368874
H   14.600574   48.214695   25.414471
H   99.003319   59.710312   18.992073
H   30.491535   30.659922    8.815830
H   59.160465   98.388573    0.584176
H   95.609123    3.730604   16.107309
H   98.553558   58.067719   92.695007
H   29.473200   49.351414   33.489021
H   30.033279   31.780771   98.845467
H   38.611576   43.941174   64.679359
H   47.642384   53.481644   68.288773
H    7.455810   30.907080   64.862122
H   47.647549   33.416119   34.002693
H   83.332993   60.251328   10.390148
H   18.677738   61.105686   40.184135
H   61.792946    0.325469   91.111038
H   78.766068   91.846298   81.013420
H   85.088814   15.276122   16.606464
H   41.056671   50.977425   74.870720
H   82.012001   49.944798   63.386181
H   83.130608    2.078401   60.519897
H   76.201607   70.087692   28.538267
H   84.186256   99.183662   22.360088
H   32.094257   22.803162   48.647240
H   10.960022   39.774712   94.258865
H   50.127365   48.999111   55.696213
H   12.067887   28.302582   33.364708
H   41.209312   42.958424   26.355762
H   27.241898   42.306553   61.208565
