100
TIME:    7.020, STEP:  7020
H   42.587967   78.253273   92.719009
H    6.601613   85.267403   20.738319
H    0.437941   78.951088   40.937840
H   82.654892   43.427032   55.373798
H   32.293549   35.441296   75.364471
H   19.156414   93.602806   73.960892
H   85.051712   35.361843   39.426296
H   68.128136   95.921692   63.641792
H   81.062874   11.349074   58.204014
H   83.018410   17.181795   82.579140
H   47.271729   48.707417   63.546600
H   87.906631   75.567017   93.238228
H   96.107521   37.072895   27.478489
H    7.493084   83.438271   91.464699
H   65.870918   42.971825   13.311550
H   19.264721   97.734009   50.319824
H   59.600471   46.288570   12.446649
H   51.187000   53.245789   56.175102
H   54.601894   72.852188   33.202579
H    3.388496   56.732632   94.286888
H   47.699966   57.354927   66.705406
H   35.394577   53.403137   21.460403
H   92.015083   37.529015   31.500986
H   66.799644   20.807833   85.707474
H   78.509102   29.438919   88.384193
H   14.507381   19.151360   30.269335
H   56.737247   50.664986   39.256283
H   40.214478   84.109581   98.815170
H   63.814018   86.001503   25.332479
H   70.171188   17.095146   41.458092
H   92.336128   51.552086   53.978951
H    9.004358   58.553600   49.387489
H   64.837654   54.865562   30.213995
H   74.713356   30.381516   76.010101
H    6.247305   28.157509   52.154961
H   82.874443   35.265686   97.355843
H   53.107819   47.448364   61.613865
H   73.841682   30.483166   17.823814
H   48.757008   28.461672   64.022141
H    1.988284   54.995052   90.353500
H   55.484146   97.057930    7.733303
H    8.606613   69.132080   38.343517
H   71.701385    5.598824    8.536640
H   31.092937   30.473043   67.113152
H   47.722404   54.917027   56.830635
H   87.509544   96.812607   11.680761
H   96.578415    6.609031   92.849266
H   56.616085   67.673706    2.935708
H   70.229500   51.052868   64.445694
H   73.125732   37.582325   92.693428
H   43.019566   91.907516   27.427498
H   46.300060   12.334724   13.217282
H   54.489521   62.713074   95.157753
H   14.126625   92.664047   41.588882
H   81.851852   73.804771   60.058872
H    2.339161    5.149364   53.649429
H   41.288929   86.987129   23.647987
H    3.332353   13.934977   32.737411
H   43.929024   35.385632   72.559090
H   95.771935   67.369720   63.945091
H    2.527170   52.108047   67.060440
H   49.764412   62.600906   77.721985
H   50.648960   28.251171   52.087982
H   25.090111   80.003998   36.547123
H   10.957816    0.168044   49.311237
H   70.097778   93.288445   61.261032
H   24.340990   91.062225    5.987225
H   95.446190   19.018721    1.799194
H    6.776788   45.373901   19.949963
H   72.607140    1.226612   86.951019
H   99.114830   17.761063   77.940804
H   95.174934   18.523785   70.611916
H   49.274338   71.071564   81.756409
H   75.669426    5.124135   86.049377
H    0.632727   38.651752   33.562717
H   91.613380   57.490093   23.572832
H    4.348370   18.201427   15.242113
H   61.792690   91.699593    2.126800
H   98.148888   32.898769   96.001610
H   55.257431   26.607265   16.141777
H   48.243675    1.907223   99.558563
H   68.070900   89.996475   99.711617
H   61.907303   24.517248   98.491959
H   33.114697   12.875559   22.248905
H   10.513746    9.778939   67.242119
H   89.724533   66.912720   29.273453
H   36.004719   92.941277   58.284065
H   68.929924   43.326641   22.791397
H    1.366993    3.310337   70.776253
H   45.676716   20.453518   75.163666
H   11.310078   52.490555   81.711349
H   97.707809   23.450310   67.281822
H   35.448917   38.154552   61.871956
H   25.722752   39.068077    0.146879
H   35.221779   20.920509   77.398712
H   73.744797   18.519766    4.856720
H    5.388071   70.543152   33.463013
H   24.727098   33.809246   37.955238
H   74.296501   67.116264   57.039577
H   75.249626   98.490891   21.481213
