100
TIME:    3.453, STEP:  3453
H   83.810211    5.363681   95.984695
H    5.218220   91.960663   95.814255
H   39.108688   22.326447   82.808037
H   82.056183   90.385857   50.893253
H   64.242844   49.530682   72.079773
H   74.477425   97.467201   20.707911
H   71.997383   94.500069   60.482033
H   48.487305   87.330429   91.150673
H   68.746605   54.301544   82.733238
H   80.479805   65.963326   42.906563
H   79.065384    5.181572    7.139399
H   24.048851   96.771912   47.140419
H   23.617416   52.796127   81.928642
H   84.108833   94.432747   20.014576
H   22.502537   61.591385   84.790047
H   62.686874    9.717117   46.412453
H   46.437477   10.360612   87.728561
H   74.930260   26.781425   79.834167
H   99.050179   23.210466   45.278912
H   99.491356   32.487995   51.428917
H   59.370804   12.459824   63.519623
H   93.422821   48.667892   25.223404
H   39.641502   66.539192   33.556946
H   98.220360   78.095001   50.624409
H    6.085603   12.318604   62.040993
H   30.825083   24.722109   65.520348
H   64.323883   98.938980   68.485817
H   41.187664   17.614059   80.910057
H   86.252655   62.375107   93.947762
H   33.395813    5.377919   57.892059
H   51.953678   31.693007   36.188576
H   83.781807   57.106438   79.602562
H   13.581755   15.844433    8.870465
H   23.999050   57.275887   26.281097
H   94.938171   97.899651   34.991699
H   72.781654   55.737202    8.767770
H   10.986981   78.079086   80.548271
H   21.273613   95.756432   66.108849
H   99.318878    6.183294    9.691095
H   37.959507   88.924896    9.708704
H   99.264252   74.663177   23.696882
H   21.285210   66.832626   65.026062
H   40.983547   84.206558   50.886845
H   58.861526   70.642944   18.350321
H   57.132648   95.654694   51.593563
H   33.539188   28.777485   97.188972
H   68.711227   12.623422   58.609711
H   56.423824   30.935133   82.230019
H   65.961716   46.471519    6.731572
H   98.297783   83.296593   42.156590
H   43.281178   36.279007   89.824707
H   72.942169   43.326775   47.379650
H   80.502892   42.030396    2.323934
H   96.732048   50.869614   84.188324
H   65.860275   61.196716   29.716230
H   97.886703    8.902319   75.078537
H   15.157737   89.911659   84.396416
H   68.938713   50.794540   24.614582
H   62.606361   84.666046   46.394863
H   31.156448   93.196487   65.399055
H   77.518410   17.992275   45.172237
H   76.360893   95.802048   39.117615
H    8.484029   71.656548   96.687889
H   80.151299   60.577965   33.391811
H   69.379677   85.058754   17.131994
H   89.222023   70.613991   50.352112
H   10.527641   67.739410   33.773907
H   41.843529   15.017867   31.275969
H   28.999084    1.675773   43.666996
H    0.344716   21.818102   94.462097
H   12.383533   60.457756   20.727360
H   89.251572   36.926895    9.433803
H   81.849182   47.505802   73.214592
H   54.200115   30.866341   97.989128
H   28.654997   33.561085   63.158848
H    7.286626   28.877192   63.585072
H   80.465340   27.263226   52.117451
H   94.208542   24.936934    5.135071
H   27.096899   43.376179   56.209343
H   30.183815   20.895512   23.442062
H   78.449234   65.004532   86.366821
H    0.406097   66.778275   98.039307
H   36.270191   64.894012   58.781071
H   87.710938    7.639427   48.038109
H   84.196533   32.897434   13.022711
H   71.822998   35.888474   81.569931
H   97.772774   52.291695   88.195602
H   11.538908   28.838669   59.832626
H   27.343735    1.915179   99.949715
H   61.047871   67.211624   47.653008
H   65.333588   59.882244    6.382852
H   33.780350   55.190079   99.321053
H    6.798520   31.124197   86.030235
H   80.973549   22.682220   59.635483
H   96.888817   40.431248   95.433983
H   79.125214   59.375923   89.096840
H   88.519714   65.841194   38.604652
H   19.541517   45.637909    0.785422
H   44.220390   51.734821   55.812767
H   53.688976   90.024391   65.102234
