100
TIME:    9.733, STEP:  9733
H   59.118805   29.459007   90.235184
H   31.673676   32.281185   91.801567
H   47.072186   74.135048    9.089098
H   83.110260   31.651876    6.662984
H    7.983229   52.899857    1.805086
H   77.089478   90.663612   42.637535
H   42.863194   18.556482   51.586452
H   54.891693   30.630108   14.541443
H   14.372154   50.503723   87.429878
H    8.914385   56.136463   88.807045
H   94.915009   57.869431    2.215394
H   84.359703   11.555403    0.124007
H   23.108673   72.862373   57.868301
H   73.161682   75.076057   97.924797
H   98.823006    0.633295   82.839867
H   10.179615   60.445175   25.116932
H   41.437111   25.733315   59.421738
H    9.201606   21.230934   62.130859
H   96.863724   86.664261   76.138214
H   30.291729   99.122528   79.000511
H   86.706207   87.267097   93.072372
H   95.492538   57.004684   90.423447
H   55.792625   15.471996   53.878296
H   14.721470   53.263153   84.217316
H   81.476913   14.284431    8.416233
H    1.712802   39.174667   74.963799
H   22.791142   37.887554   93.082016
H   11.299746   10.743245   88.493279
H   22.806011   32.145542   97.088608
H   74.199654   49.947830   57.134041
H   99.109276   94.833038   39.335114
H   80.304947   83.598801   98.231544
H   55.937889   56.369644   74.622459
H   89.344086   81.751366   61.715477
H   38.728386   22.745277   17.216024
H   18.710333   47.764790   88.828041
H   13.320683   48.092049   75.387711
H   61.706944   80.836906    9.272689
H   34.239025   69.351585    1.112836
H   46.453358    1.011308    3.806412
H   70.069916   90.145950   71.649742
H   79.969429   79.773544   76.841789
H   95.049347   21.874924    4.498142
H   57.866978   76.017311   32.374271
H   12.378729   47.872684   88.986221
H   52.494408   48.552898   22.702738
H   17.786442   54.155415   18.898691
H   56.781673   95.616745   70.800064
H   49.533653   26.363369   56.222298
H   30.078650   78.883385    3.001010
H   45.476810   30.184059   51.968872
H   78.152679   60.589806   35.125404
H   10.754566   78.443970   37.594948
H   51.294685   48.403259   61.306526
H   65.838936   11.558076   83.120590
H    5.718199    2.295552   61.292496
H   13.282648    8.704741   81.676689
H    1.317056   57.725426   62.855492
H   57.901546   50.025673   64.283943
H   16.741909   75.899429   86.780922
H   73.669464   25.942026   55.541294
H   53.474724   37.348679   54.969337
H   34.845966   43.139938   66.058334
H   11.387247   94.782761   62.891960
H   18.641659   83.484444    1.960131
H    3.436490   58.417320   21.675776
H    6.671326   84.856781   36.972057
H    8.040887   74.177925   31.496292
H   41.994064   50.435028   49.796886
H   27.697144   37.507313   81.200089
H   12.957317   33.163494   45.402687
H   71.777458   28.427147   69.469635
H   72.382523   36.876095   12.193745
H   15.950077   33.418949   24.851480
H   31.318407   42.646572   39.264118
H   55.754425   31.366390   41.021759
H   50.747017   83.384445   63.362633
H   89.246071   14.312233   51.968300
H   28.246321   24.929829   26.278154
H   22.209923   78.816383   82.414650
H    1.355218   29.974710   61.711586
H   71.651451    7.598052   72.740257
H   33.506805   69.888466   56.865566
H   19.764347   45.033401   74.457695
H   78.415619   40.062050    4.249137
H   27.285542   66.565498   17.672459
H   17.199984   95.683449   87.650108
H   12.561356   26.233099   94.665939
H   57.672367   52.254158   48.587410
H    5.810477    8.832924   72.146164
H   22.337790   98.984741   39.005272
H   98.442337   27.493788   18.979502
H    9.357577   19.552732   71.672417
H   85.276039    3.461776   87.141197
H   88.312225   77.907112   39.738747
H   97.827454   11.387024   64.726791
H   90.042839   26.234818   77.434174
H   19.490366   68.047836   83.485008
H   45.055260   78.831642   29.796818
H   43.764923   28.870960   60.130047
