200
TIME:    0.020, STEP:    20
H    2.711002   63.205128   11.577713
H   26.003416   29.666115   80.966057
H   22.748859   59.508789   34.512016
H   10.426778   74.402351   50.252640
H   17.546078   78.153381   56.821571
H   96.775574   58.786140   72.061882
H    0.171873   55.460228   45.393093
H   97.958717   79.386261   32.881397
H   78.493996   90.804413   53.086315
H   18.605648   77.980553    4.749835
H    4.525391   89.894478   86.009460
H   29.868073   36.150726    2.259670
H    5.774547   79.706551   70.308403
H   14.802624   52.278744   31.664608
H   30.243628   70.251015   43.519897
H   35.712971   35.030926   59.068871
H   73.857986   97.414764   26.113392
H   41.786407   72.591019   47.437069
H   57.705631   37.666363   39.245232
H   89.356331   82.725914   45.999012
H   55.444847   65.776047   35.919666
H   94.926796   40.405251   79.052628
H    1.593308   64.141037   54.414986
H    3.985540   86.114632   92.288399
H   93.684196    3.855722   53.260540
H   18.843206   52.573475   14.222631
H   94.635811   54.382389   40.236343
H   89.461456   61.053688    0.152397
H    1.802686   63.216743   39.626587
H    2.991160   14.870829    6.235816
H   13.648720   42.257969   15.925838
H   35.926678   58.350082   88.186714
H   32.439003    4.251633   70.491928
H    3.708168   63.337898   34.444931
H   58.545994   98.891586   35.892521
H   40.247612   54.938049   76.953743
H   79.950073   79.177383   84.303322
H   43.797245   39.064472   25.059067
H   61.212494   54.278500   39.541420
H   92.192581   40.593182   72.290131
H   80.440811   15.505298   94.222038
H    2.389040   47.720154   46.354500
H   80.663040   92.835793   42.159184
H   37.771378   52.549675   10.880103
H   21.260412   69.582962   36.424767
H   44.155724   19.564087   40.295223
H   75.828339   36.990456   91.355095
H   95.471809   65.553963   55.556595
H   78.572220   37.100857   61.007717
H   69.989609   16.808691   15.020128
H   83.441696   73.280693   36.587528
H   29.548075   31.911358   58.810883
H   46.244225    0.718098    5.049969
H   25.680862   77.541061   78.445259
H   86.511032   81.277664   97.888374
H    8.125898   77.769829   71.444244
H    6.058335   15.912964   52.014515
H   65.005112   53.465107    9.274201
H   32.823307   70.227585    1.805537
H   48.191563   97.224525   71.061157
H   51.132027   19.668665   48.664192
H   85.983902   15.903757   47.380161
H   65.386368   20.649012   92.307098
H   18.795647   64.838463   98.755760
H   67.811844   72.799347    8.933275
H   47.369537    8.014149   28.908829
H   94.392921   27.802528   81.289833
H   98.573418   90.949745   82.915932
H    8.697250    2.880263   64.764381
H   46.503368   37.795528   50.994343
H   58.561676   72.787048   67.396637
H   38.323124   29.604570   46.304821
H   70.511368   21.859692    6.862158
H    0.698077   13.800355   54.168438
H   76.466202   97.309975   77.957108
H   47.752998   26.843708   64.314896
H   96.357452   21.760118   75.257454
H   34.703640    1.963831   55.490425
H    9.857967   19.891600   39.811047
H   71.591064   91.893906    4.695089
H   34.030788   33.820068    4.399184
H   16.963036   72.546394   94.658379
H   11.858039   11.253085   96.716637
H   31.848253   54.665688   86.681122
H   46.742462   96.997498   64.016861
H   18.469055   93.471771   32.362518
H   25.995066    2.325678    1.266971
H   77.161018   26.732325    3.144325
H   58.958328   71.503487   76.365700
H   24.546043   76.186165   57.285854
H   50.464645   32.993610   81.733032
H   85.587868   86.605225   93.567429
H   36.808720   19.343292    1.995463
H   69.893555    2.337549   63.063999
H   19.550293   59.902122   58.777031
H   78.382790   22.790550   39.405354
H   76.321281   21.888502   88.854279
H   12.942629   25.020092   46.510593
H   42.002953   71.981857   52.101601
H   63.379208   94.352249   27.196695
H    0.050720   74.343628   58.579857
H   82.391457   73.328171   67.078133
H   18.619001   45.209808   27.428310
H   11.304499   67.533295   81.425949
H   25.630388   30.363892   17.954866
H   78.713539   37.544239   54.190681
H   55.236706   27.365076   57.283096
H   66.046974   25.827492   27.248495
H   67.205589   42.866676   88.494469
H   97.299896   31.127787    4.460528
H   44.300026   97.978554    0.641065
H   77.160187   57.812233   88.005211
H   60.915070   77.721710   98.720680
H   63.969414   24.140274   80.627197
H   71.191872   72.807495   34.486607
H   23.016659   12.233393   69.009613
H   41.620197    5.344800   81.615402
H   41.887295   16.167850   38.376091
H   10.507354   49.453876   94.412766
H   64.976814   42.283993   41.135895
H   38.258430   20.297489   94.728844
H   27.781666   32.691669   41.716835
H   26.932388   31.101131   17.502851
H    7.318641   75.236153   27.499184
H   83.496849   14.394520    0.089377
H   39.662350   56.332607   29.779165
H    0.854960   48.162704   79.551163
H   80.240837   85.844505   33.144512
H   89.760353   60.447155   89.903847
H   57.081894   25.192093   62.753593
H   39.728188   93.040924   95.003922
H   90.144371   83.869370    4.138923
H   93.156136   71.891151   95.738647
H   11.708299    7.362258   46.998886
H   93.557968    5.348012   66.526291
H   68.217606    1.909200   86.922722
H   68.528488   86.003914   44.386665
H   89.341820   71.089211   86.674477
H   40.562805   41.257004   71.602119
H   43.328773   19.641474    1.570671
H   39.726086   69.539032    7.803525
H   67.366165   34.326332   41.118336
H   62.077721   52.711689    6.804577
H   67.793953   34.491470   74.478798
H   29.960903   77.063370   41.874638
H   37.879295   58.184914   40.382744
H   39.528008   97.741234   48.857136
H   48.659676   81.607933   70.087181
H   59.303928   73.976852    0.131530
H    2.411908   86.213181   98.217384
H   83.974739   57.573681   53.005039
H   24.526766   13.197065   55.046631
H   65.955566   40.064754   11.188004
H    4.094214   96.092392   81.389076
H    4.888669   48.069027   56.772728
H   56.971184   42.983402   47.292542
H   57.008404   54.286373   78.150803
H   42.918243   40.189713    4.569911
H   22.450850    2.563285   10.763383
H   66.145454   65.920258   69.798386
H   51.794922   93.347221   89.265343
H   53.933392   24.196400   37.449875
H   55.749447   44.161545   37.323528
H    3.199360   13.716650   80.611633
H   61.060661   14.623380    7.662890
H    8.123298   71.438454   63.504444
H   78.688133    1.125109   49.889469
H   23.440029   20.923027   38.915424
H   91.083611   28.885656   37.376419
H   16.433205   12.119927   92.880768
H   83.567871    3.017509   35.994537
H   53.763039   73.617889   56.782532
H   33.422226   86.907364   96.614212
H   73.930016   79.818024   69.148148
H   81.663086   96.691513    9.575110
H   94.114670   46.472496   23.075678
H   37.677799   46.048668   77.704933
H   99.780128    8.991051   62.067089
H   81.227791   26.493853   71.707932
H   96.765770   52.095177   83.281517
H   85.434387   77.305656   46.834427
H   14.790277   29.837490   61.584705
H   75.763016   90.394028    1.715800
H   46.690575   24.812891   69.096718
H   82.677963   97.876465   79.303207
H   94.654716   34.367386   82.853127
H   23.691923    8.293032   94.390884
H    0.990341   57.906254   17.828678
H   12.989418   60.192341   64.029068
H   45.612946   59.470058   62.923481
H   37.310551   38.303017   80.872505
H   49.456429   78.950500   27.426588
H   99.213875   12.290145   52.766617
H   38.947254   54.750183   28.879330
H   92.444351   64.081917   22.535927
H   74.791031    9.843609   32.580559
H    7.998916   79.560570   96.041214
H   35.303406    1.778317   53.171165
H   14.847060   10.996317   87.856239
H   10.302410   42.445972    0.805421
