200
TIME:    0.153, STEP:   153
H    6.797808   62.763729   13.851931
H   27.188850   31.608015   86.365326
H   19.961199   65.330177   41.062981
H   14.909891   75.956886   46.774723
H   16.133856   81.524246   54.909351
H   92.448853   55.176311   68.124809
H    2.098778   55.365860   47.967411
H    0.939000   85.129517   28.160461
H   83.895294   88.810509   49.841782
H   13.923779   76.117546   99.504082
H    9.161218   92.735664   90.212387
H   30.418045   39.700687    8.596863
H    9.038867   84.120537   64.857384
H    8.515991   52.839878   38.073513
H   23.822292   71.274857   43.192654
H   31.836273   29.550987   56.199780
H   80.114685    3.643900   19.656034
H   38.628124   78.984703   45.069244
H   62.130779   32.851566   41.203114
H   89.779465   80.899437   40.843273
H   57.040985   72.415291   29.826336
H   91.965874   45.488945   73.927330
H   97.610458   63.174019   51.223724
H    6.774338   87.279518   91.859177
H   99.464996    9.204888   48.514744
H   18.733110   58.475533    9.829954
H   97.211143   57.051075   45.583862
H   92.513702   66.540497    0.502353
H    7.404327   59.174141   38.847797
H   96.980858   18.433727    1.635313
H   13.475078   47.814518   16.088446
H   33.508118   61.467270   91.461182
H   29.225418    7.113494   72.116478
H   99.305931   63.483002   36.769630
H   52.163471   93.395920   34.880856
H   35.903133   51.905590   78.478851
H   83.767410   76.306770   85.301796
H   37.218376   42.504845   19.079130
H   56.290138   49.515961   42.497776
H   90.917091   40.046253   67.094818
H   80.478424    9.287851   98.636421
H    9.008959   44.931225   42.410831
H   78.268326   89.780502   47.097775
H   37.475082   59.008808   15.636807
H   25.804535   73.640785   41.224342
H   42.284092   16.102659   41.741692
H   78.334671   30.474499   94.271370
H   92.233871   65.551933   50.775284
H   83.715782   32.053692   61.103607
H   65.230621   17.408892    9.393184
H   80.277832   71.597290   31.316620
H   24.463873   34.200542   61.670841
H   49.830715   96.911987    6.790005
H   23.701418   80.347748   80.414810
H   80.881424   78.319786   93.587021
H    6.420933   74.493332   75.799377
H    5.678771   16.416237   50.587833
H   66.458176   56.556927    6.873682
H   30.016949   72.796829    5.022292
H   45.115471   96.477699   68.602516
H   50.701283   17.073799   44.778362
H   88.373543   16.218786   48.399437
H   69.050484   23.404202   87.820053
H   22.018110   65.028214    1.725060
H   69.949837   74.782089   14.371991
H   42.152409   13.181176   31.299484
H   89.424904   24.997110   84.037666
H   97.828621   91.252129   85.549103
H   13.427953    4.677567   63.080978
H   45.737770   40.113632   50.987240
H   58.503330   75.087395   70.954208
H   34.585442   26.108643   45.373825
H   74.732559   24.159023    2.408852
H    5.031036   10.876977   58.040062
H   78.085678   99.463188   71.703453
H   51.114731   22.148140   63.445980
H   95.795303   26.711393   73.376183
H   29.777617    4.385715   50.942497
H   10.869125   25.817249   36.865345
H   69.587013   91.152153   98.387543
H   39.675617   31.572437    2.425004
H   22.811060   70.154724   90.546776
H   11.339142   12.711984   92.825226
H   27.511131   59.014732   91.015961
H   42.006306   98.403885   60.247723
H   22.216124   88.818314   29.593884
H   31.955976    2.602820    1.571875
H   76.054985   21.782318    8.160739
H   63.026806   71.834282   76.849716
H   23.879887   82.147583   55.822643
H   44.889832   34.141754   81.141457
H   84.661438   87.772141   96.469498
H   43.126808   17.843298   98.207634
H   63.929100   97.559280   66.715805
H   22.920397   58.103043   64.316330
H   72.874947   25.764156   33.152206
H   78.125435   17.288317   94.582314
H    9.286377   27.086802   47.769848
H   38.989265   70.649544   52.572933
H   65.691727   96.513580   27.229166
H    5.984656   78.020935   64.843086
H   87.337151   75.340340   66.344498
H   21.375967   40.349350   29.287004
H   17.695393   67.778854   86.707512
H   25.454067   28.616055   22.266899
H   83.978867   31.032379   47.963917
H   61.537037   29.016516   56.664124
H   65.263618   30.934017   22.105694
H   70.585587   41.187840   94.925697
H    1.571999   29.273405    5.111464
H   46.049892   96.822800    0.734640
H   82.500603   61.157223   89.520172
H   58.605083   79.265083   95.827744
H   63.518883   21.272959   77.197479
H   66.753532   78.345779   29.823122
H   17.588978    8.342489   75.009590
H   36.151928    7.217637   83.165878
H   41.212513   22.714249   35.717552
H   15.558324   54.447262   87.839478
H   68.486694   44.938473   46.097317
H   39.646553   21.181301   90.370667
H   22.042976   29.540997   45.629047
H   30.138922   25.491817   21.448296
H    5.359110   70.449768   21.675005
H   79.519630   11.106154   95.690521
H   44.534985   59.971863   27.211189
H   97.549156   48.783707   74.414703
H   77.331665   86.887627   34.267796
H   91.397079   55.632866   86.872910
H   63.528343   24.561705   65.019440
H   45.097015   88.292084    0.086601
H   85.039368   85.188492    7.275326
H   92.721840   78.361954   96.727989
H    5.186634   10.772317   48.636120
H    0.128213    2.943200   60.414696
H   64.675255    1.738507   84.963318
H   68.748680   86.342827   51.007645
H   90.476265   66.937019   84.573013
H   44.039200   43.116966   71.570663
H   43.400818   13.262558   97.874893
H   46.310535   65.627327   12.099678
H   61.243408   38.367413   44.218781
H   57.802242   55.159676    2.318661
H   61.699608   29.677057   76.682747
H   36.212528   72.652428   46.223682
H   42.752438   60.476635   34.012905
H   42.673607   97.158791   47.904831
H   45.028030   76.657166   69.324120
H   62.859470   68.424362   98.809334
H    6.679840   87.711906   93.252411
H   79.286781   59.832424   52.000984
H   30.125172    9.516968   50.878712
H   72.134132   35.091663    6.518838
H    7.610055   99.145653   78.102432
H   10.162659   51.581444   59.179111
H   60.919418   43.313183   51.384357
H   58.400585   58.274689   79.725632
H   44.809155   38.055779    7.685894
H   16.363607    2.062145    5.831233
H   64.654846   60.493591   74.902374
H   53.101360   87.943893   85.729080
H   47.688869   23.507158   36.297672
H   61.474438   38.362988   37.268227
H    8.081260   17.623863   74.921143
H   59.787201   19.136301    8.969708
H   10.414765   67.207115   62.777405
H   76.397934   98.974129   51.299408
H   23.556213   26.974247   44.415150
H   92.890808   28.453136   37.062366
H   22.502689   11.116253   91.383057
H   81.027039    4.599187   35.983376
H   49.168434   68.678284   57.190952
H   35.991978   81.192520   92.871964
H   72.294304   76.629807   72.228806
H   75.481476   95.691010    3.321916
H   98.221199   47.190910   23.203278
H   36.311493   50.203396   83.268585
H    0.958944    9.117889   63.767742
H   77.826485   23.402033   70.152382
H   90.439056   53.521858   85.157715
H   83.006187   82.071747   43.742100
H   17.472858   29.999844   66.440086
H   69.640259   90.256027    4.348119
H   49.586555   25.059212   73.989647
H   84.397896   92.107841   78.755264
H   97.439079   35.489655   83.518776
H   28.322803    6.014827   97.337601
H   94.600731   63.539413   22.482389
H    9.137835   60.785439   65.549103
H   48.031506   58.746571   64.603836
H   43.664154   33.902729   79.922737
H   48.366123   82.564896   25.732531
H    2.168003   15.454263   55.813282
H   36.623569   60.058636   31.559925
H   87.880188   58.141304   22.100870
H   75.115738   10.169965   30.758314
H    8.882981   83.187141    0.530292
H   31.437908   99.135269   49.420292
H   13.073475   11.368462   81.908012
H    8.915175   37.940155   98.957497
