100
TIME:    4.000, STEP:  4000
H   46.818268   55.200928   95.483902
H   90.005745   21.617296   30.318171
H   48.511086   61.679955   76.389534
H   82.147995   67.850151   20.909018
H   59.343414   93.375145   57.247940
H   65.997322   96.874596   74.879967
H   43.329967   31.436794    3.258165
H    5.494186   34.652645   40.927517
H   55.300301    1.709611   48.301785
H   65.531120   73.817436   64.327942
H   28.184769   27.190998   54.448643
H    3.169948   24.189753    8.205004
H   88.818924   19.702354   27.562088
H   57.024254   92.746742   61.643032
H   29.156830   12.731390   58.497517
H   40.693695   61.874443    1.005835
H    2.450854   46.538929   37.524132
H   86.615440    0.180477   60.870098
H    7.569721   46.159325   74.096863
H   84.751335   20.871759   88.671257
H   26.911041   58.005520   48.675270
H   45.864243   49.394043   78.641342
H   32.338264   62.090477   17.905270
H   47.398170   84.655396    9.997694
H   86.521637   68.940353   66.080727
H   28.314856    8.423854   14.250809
H   17.153997   76.202957   79.336342
H   95.033844   43.146179   98.988701
H   98.146500   12.003467   68.090126
H   54.370712   91.839409    1.377570
H   73.481789   80.742989   92.911674
H   18.319471   41.994995   28.963997
H   52.112705   75.823418   58.148544
H   47.111389    7.146637    3.238239
H   81.341629   56.550804   68.299179
H   20.347811   98.706085    6.879671
H   63.450104   58.047348   23.649527
H   98.665993   85.748909    4.711237
H   76.232300   94.265495   56.682426
H   86.438011   37.716621   52.746647
H   61.880020   93.434586   36.583965
H   72.123917   91.379852   90.725113
H   45.695179   87.486755   90.398064
H   23.931665   79.807465   71.832886
H    9.685659   74.070496   98.401062
H   26.482174   39.210682   99.409157
H   72.984665   42.371910   63.863869
H   56.453037   36.568665   16.075218
H   81.953720    1.170516   84.912750
H    9.769496   91.618111    3.900087
H   43.239445   83.469093   95.592178
H   99.525955   92.569031   11.468586
H   91.845863   45.202087   70.556770
H   84.061974   41.942970    8.325862
H   22.307938    9.138323   34.368412
H   98.571121    8.326406   56.457367
H   49.833538   74.128319   36.420815
H   28.207512   99.136650   10.523912
H    5.749037    7.778180    4.400532
H   95.060730   35.241589   49.841072
H   12.023449   92.554100    2.525171
H   56.946800   90.710648   14.365968
H   45.620716   34.330742   59.178459
H   17.711878   63.553513   18.539112
H   91.089073   41.370708   68.071648
H   55.618782   43.420906   82.695023
H   66.641006   86.652710   60.182415
H    4.058332   46.301895   57.425732
H   56.263115   62.371841    9.358673
H   11.426775   49.331757   93.310272
H   95.013603   23.239964   14.164879
H   44.148613   18.773132   49.483585
H   46.184341   20.450436   59.190941
H   42.156033   96.251183   65.487633
H   55.026211   34.341488    4.624729
H   20.218943   63.936722   26.780628
H   30.128687   79.853561   61.791111
H   19.907604   89.170387   35.345108
H   53.325958   41.769466   62.314850
H    3.357577   91.105156   76.317680
H   89.149521   70.663498   19.059553
H   41.449921   70.350601   52.300171
H   70.878365   74.025146   10.880199
H   25.344160   54.447823   98.079361
H   57.562668   98.681343   59.997269
H   59.234806   55.982811   19.555527
H   34.305687   12.520348   14.279043
H   20.342440   85.044685   54.144447
H   38.695908   71.458672   95.475960
H   12.684505   44.705727   67.205505
H   87.719055   89.420128   17.934488
H   74.255920   96.322807    9.744610
H   41.861183   47.537704   28.330667
H   33.843060   55.863373   96.518425
H   87.432167   91.433586    8.003230
H   24.305222   37.775032   60.843742
H   45.100922   97.232597    7.145121
H   21.548864   50.295288   92.030159
H   18.162437   54.092724    9.994339
H   87.666542   75.985481   12.407031
