100
TIME:    4.915, STEP:  4915
H   84.941322   71.290810   94.646194
H   64.734901   71.201584   88.012268
H   64.239151   27.508369   65.652916
H   82.301575   30.153141   70.756355
H   51.147842   66.716431   32.437836
H   51.806141   95.883308   65.495995
H   95.375633   93.221405   74.812408
H   33.576988   13.812440   56.915752
H   32.807854   13.736282   90.704994
H   40.525551   86.955482    0.153921
H   43.073700   64.008240   66.310913
H   68.250893   70.054237   43.073601
H   30.430710   64.370537   36.642822
H   11.719638   89.926460   31.273829
H   40.285271   30.999464   14.512220
H    3.901803   81.845108   25.053329
H   28.872169    7.060651   20.820189
H    6.171966   55.669437   29.146261
H   21.821194   84.543533   22.303812
H   60.095917    1.440442   50.968666
H   72.613655   66.914398   23.843075
H   33.586182   50.608719    0.720648
H   20.121696   54.648842   91.725586
H   62.384602   95.625946   42.042542
H   53.795197   96.374756   72.838234
H   24.140978   81.357620   28.234064
H   38.252853   38.166294   97.486671
H   17.828671   85.855301   29.235765
H   18.043373   95.019524   24.837074
H   89.456696   69.193382   74.117104
H    9.490590   62.792126   20.519783
H   76.093361   16.717171   44.257866
H   16.562950    8.877832   40.578972
H   85.771591   23.292206   64.689980
H   58.597870   87.383682   24.017693
H   99.890594   70.392494    3.974673
H   51.211006   24.538269   95.748215
H   60.844082   69.008720   69.278374
H   37.609211   74.328056   68.012283
H    0.255765   52.057961   24.735945
H   99.346832   24.829321   58.140972
H   89.888268   32.445213   33.709911
H   53.576611   92.973740   56.488594
H   65.502899   95.140930   61.297989
H   30.316191   37.970337   76.700218
H   14.677282   56.662922    3.127848
H   80.133102   92.131737   72.645943
H   56.501904   45.992874   72.690285
H    8.702492   25.389576   48.413643
H   28.959980    5.540792   39.902267
H   43.169636   95.131592    5.238833
H   43.991753    7.663736   51.402252
H   10.823195   50.507568   17.413027
H   62.868347   27.010834   48.701317
H   49.455597   89.330086   42.152111
H   99.715988    7.363620   25.308609
H    7.842369   47.726570   23.444969
H   60.074356   12.726406   86.955551
H   77.911903   46.440201   34.155563
H   34.679371    5.570493   23.816292
H   69.742584   50.000858   31.183823
H   24.472483   82.193954   72.967300
H    7.739251   71.892258   96.434143
H   80.544289   68.537247   93.695877
H   27.406507   68.292175   53.281773
H   99.409935   97.933983   36.796486
H   93.228455   18.287445    4.357825
H   40.853188   98.630692    1.168022
H    1.863747   96.625786   51.973358
H   29.964544   95.352051   91.383545
H   65.959114   60.983475    3.187770
H   68.701996   88.405533   16.474663
H   86.523819   75.189461   35.728149
H   22.010685   38.348537   11.121166
H   99.144051   35.646915   73.988251
H   41.852737   22.577719   65.211014
H   13.204737    0.546364   77.972832
H   62.895962   29.340218   85.876793
H   97.206169   39.081821   72.522072
H   58.484314   41.272335   97.489685
H    7.050921   80.129593   73.747063
H   10.103139   76.326248   75.788109
H   28.759340   89.315491   98.022964
H   88.293961   32.746628   14.508178
H   13.009217   41.449203   71.298302
H   38.173443   89.590508   83.095642
H   95.416451   45.992386   57.909714
H   35.069366   11.788025   44.629486
H   57.683945   20.512880   87.992439
H   31.786306    7.057755   99.917984
H   25.164757   38.827579   37.257610
H   41.959126   65.134247   27.178999
H    0.514652   74.996361   99.089035
H   22.280937   11.363328   58.210697
H   71.613457    9.473221   29.026863
H   99.880402    1.644279   13.582987
H   72.472832   49.742367   54.522888
H   24.906675   58.085968   77.384239
H   74.573883   58.036930   33.354362
H   44.499905   52.505169   24.262663
