100
TIME:    6.866, STEP:  6866
H   53.002518   92.375893   92.860001
H   10.854309   76.923073   11.028136
H   97.789825   67.871529   42.746052
H   82.629044   49.771637   63.815647
H   33.672913   23.097517   79.540161
H   21.545040   93.769646   58.709934
H   93.123459   24.962566   27.383295
H   80.232231   82.598022   77.780891
H   84.848488   26.155594   67.897865
H   87.224648   14.970446   76.549416
H   61.596436   42.510853   78.381187
H   93.783615   67.847748    4.200102
H    5.933029   46.388180   42.781181
H   15.118065   83.912941   79.745979
H   64.000435   56.727867   20.717113
H   25.457172   11.203608   63.103027
H   71.984200   36.103130   98.427406
H   47.893681   60.739471   61.512794
H   52.203869   66.392441   25.089710
H    7.537163   60.002453   83.801842
H   56.838547   72.685883   70.885796
H   20.630447   53.198700   34.574936
H   94.071205   38.781487   35.907028
H   81.107903   18.965548   97.144211
H   84.017159   41.652283   87.246864
H   15.233486   23.690689   44.761986
H   70.016914   57.067162   36.200298
H   53.207993   76.921379   93.725388
H   60.465477   72.029274   32.611786
H   64.266006   20.906609   29.215488
H   86.275856   37.743172   66.162941
H   99.280823   62.808010   63.644051
H   53.989643   66.133110   16.340460
H   68.206612   44.494736   82.498047
H   10.080143   39.817482   42.784920
H   69.487328   23.203461   97.839912
H   38.337814   53.088013   49.479221
H   80.207436   33.301815    6.956902
H   55.257877   31.816675   78.946060
H   16.493332   69.412140   78.237656
H   66.009140   91.773109    4.105422
H   21.585022   68.528168   30.481968
H   70.376068    4.675037   97.413109
H   40.925900   27.888205   52.056221
H   61.080147   60.992573   43.652653
H   89.497520   93.875290   11.055113
H   95.375290   98.233780   91.371208
H   56.606686   66.087555   93.407120
H   65.727180   63.806698   70.588211
H   69.892334   35.238346    3.460697
H   43.030140    6.775260   25.804337
H   38.814602   26.625359   23.326271
H   51.294895   61.820129    4.101591
H   17.692528   95.176041   34.793106
H   94.113388   60.309242   58.748829
H    2.147354    5.311357   58.891953
H   31.526461   91.430702    9.001209
H   14.799344   28.478807   36.703964
H   31.783806   28.877712   84.381203
H    5.934538   55.532665   68.325218
H   92.812798   59.269226   79.068192
H   55.230171   64.034317   84.689301
H   40.193287   38.759926   62.648224
H   14.515182   79.165100   40.728687
H    4.845184   12.467857   34.970081
H   79.558289    0.944230   52.155350
H   36.696884   85.737457   98.551895
H    6.084145   10.210883   94.437103
H   99.101295   56.439362   29.609035
H   69.486534   93.481377   87.275299
H    4.005194   28.239059   79.787788
H    7.848218   23.648228   59.325569
H   59.315262   78.687439   85.704163
H   79.060265   14.870697   95.199707
H   93.208855   38.430401   21.887615
H   87.973457   47.619534   33.934990
H   90.361908   31.530972   12.510996
H   54.557491    1.768833   93.622444
H   90.763298   33.351116   94.283867
H   62.809860   34.996620   29.409050
H   45.229988    0.313655   90.354187
H   56.515083   88.997787   12.595211
H   52.165985   21.941809   83.826523
H   22.519855   99.697289   36.313953
H   18.012129   19.412354   82.170738
H   93.268112   61.256050   18.579269
H   25.719408    4.138403   50.940773
H   66.453178   55.650448   24.388123
H   98.171005   11.884653   72.035774
H   59.292942   26.789898   69.657959
H    5.007701   44.175598   78.459152
H   86.313370   11.868365   64.346855
H   25.577183   33.533566   49.962898
H   10.839469   29.725061   89.762878
H   37.884163   34.715324   73.859833
H   61.025040   24.600599   12.811268
H   17.611677   61.705353   42.319611
H   25.024355   26.189400   41.046471
H   81.632744   66.451256   69.938560
H   65.683372    2.442899   36.317013
