100
TIME:    3.397, STEP:  3397
H   87.597321   10.499100   96.035965
H    6.776013   88.924652   92.281784
H   38.146103   18.297729   83.465141
H   82.046783   92.692986   53.963017
H   64.744431   45.042034   73.598206
H   75.345589   97.527870   15.162027
H   74.932564   90.718941   56.102760
H   52.888794   82.485458   96.292152
H   70.123192   59.685699   86.258018
H   82.010201   65.159248   40.713509
H   84.274368    2.928342   12.533594
H   26.186363   93.964905   51.126625
H   27.179581   56.184189   87.494804
H   86.881660   94.605354   15.752796
H   21.821293   66.593582   87.481697
H   64.938461   14.615173   51.060890
H   50.940651    6.656709   82.630661
H   73.733971   29.504692   81.775574
H   98.177742   20.861040   42.328777
H    1.000099   33.677021   47.616173
H   62.693924   18.034958   65.039627
H   88.054047   48.593552   29.992325
H   40.389183   66.994637   35.159119
H    3.423399   77.423370   54.783649
H    8.088426   16.759827   61.627419
H   31.082071   26.390718   70.769493
H   69.152618    1.266772   67.374977
H   45.912579   15.000168   79.059227
H   85.035004   57.294296   96.594978
H   31.248550    6.764012   53.440155
H   49.749516   26.671370   40.619118
H   80.245918   58.653496   84.786766
H    9.637098   19.941509    3.825543
H   21.632748   62.407967   28.640137
H   96.330139    2.132859   31.581848
H   67.911903   51.337849    8.961099
H    5.615881   80.129868   76.135674
H   23.588005   96.780968   62.157024
H    1.682652    7.403296   15.117762
H   43.233860   94.167206    5.302729
H    3.091387   72.741425   22.377546
H   26.318169   64.319565   62.395081
H   40.501186   83.870743   46.842106
H   62.437576   69.704712   12.874949
H   61.990009   97.864410   46.801571
H   34.261662   27.709370   96.961678
H   68.273727    9.577798   58.071808
H   56.420834   30.358564   78.765053
H   64.324509   51.109276    8.965535
H   97.123711   82.444664   46.073154
H   43.285450   41.685379   89.234253
H   70.220612   48.523369   51.056103
H   79.341637   41.705688    5.576359
H   98.029167   51.783493   81.717133
H   70.319016   56.288940   29.240065
H   97.816635    8.961279   76.984909
H   11.607642   91.527504   79.070366
H   73.108635   56.082993   26.057178
H   58.189919   82.299957   50.694241
H   34.851700   88.892410   66.991829
H   73.985939   20.596554   49.538265
H   78.348442   96.323288   41.651611
H    4.682179   75.477837    0.527981
H   76.306084   60.273338   34.912380
H   67.157143   89.531166   11.916814
H   92.662209   73.397926   47.040955
H   15.020775   65.803131   31.070219
H   45.711815   11.815017   28.598845
H   26.207886    5.699562   47.179386
H   99.210022   19.001482   94.580017
H   14.161839   64.267937   21.399204
H   93.869247   38.785416    5.333735
H   85.500427   50.275639   74.650139
H   55.433147   34.410278    1.316527
H   25.955015   33.481190   58.913731
H    5.962644   25.288111   67.353333
H   75.381111   32.116959   51.127094
H   91.577560   28.598646    2.042307
H   24.411657   43.540668   55.584282
H   32.930153   23.945408   28.266525
H   77.353775   64.425186   83.019775
H   96.204529   66.412552    2.722036
H   32.727039   63.959198   53.447330
H   83.858032    2.847328   53.152672
H   86.923218   36.400425   18.451241
H   73.111572   33.831284   77.681137
H   94.032661   56.363350   85.525314
H   10.637632   33.322189   60.414963
H   26.181412    5.033096    0.407860
H   65.999054   69.515335   45.651360
H   63.041840   56.858624    5.200234
H   29.636610   50.978714   98.253792
H    3.208911   29.443838   81.699669
H   75.561195   19.285400   55.859909
H   97.856956   45.447544   94.147118
H   74.499847   61.587349   91.989296
H   92.964783   62.627453   41.825233
H   19.336012   45.161102    1.681478
H   46.888115   51.493427   60.503502
H   50.210766   91.461647   70.496643
