200
TIME:    0.233, STEP:   233
H    9.256056   62.498226   15.219881
H   27.901894   32.775974   89.613007
H   18.284410   68.831764   45.003410
H   17.606546   76.891945   44.682743
H   15.284464   83.551834   53.759144
H   89.846313   53.004986   65.756645
H    3.257816   55.309097   49.515873
H    2.731761   88.584106   25.320801
H   87.144196   87.611168   47.890182
H   11.107616   74.996941   96.348564
H   11.949685   94.444649   92.740463
H   30.748856   41.836002   12.408737
H   11.002368   86.775566   61.578575
H    4.734558   53.177402   41.928493
H   19.959835   71.890701   42.995815
H   29.504425   26.254784   54.474010
H   83.878113    7.390660   15.771910
H   36.728405   82.830528   43.644989
H   64.792519   29.955339   42.380787
H   90.033981   79.800804   37.742077
H   58.001068   76.408821   26.161175
H   90.184868   48.546806   70.844444
H   95.214828   62.592354   49.304169
H    8.459964   87.995361   91.608032
H    2.942205   12.422433   45.660130
H   18.666887   62.025642    7.187742
H   98.760216   58.656300   48.800415
H   94.349640   69.840668    0.712853
H   10.773767   56.742500   38.379353
H   93.365746   20.576824   98.868042
H   13.370631   51.156803   16.186255
H   32.053345   63.342270   93.430786
H   27.292435    8.834914   73.093651
H   96.658226   63.570282   38.167946
H   48.324360   90.090256   34.272335
H   33.289913   50.081554   79.396210
H   86.063553   74.580086   85.902382
H   33.261162   44.574242   15.482176
H   53.329323   46.651276   44.276035
H   90.149879   39.717274   63.969818
H   80.502228    5.550796    1.291936
H   12.990892   43.253674   40.038700
H   76.827896   87.942734   50.068356
H   37.296860   62.894001   18.497982
H   28.537842   76.081581   44.111305
H   41.158298   14.020671   42.611748
H   79.842239   26.555126   96.025520
H   90.286240   65.550713   47.899307
H   86.809654   29.017803   61.161285
H   62.367897   17.769915    6.008578
H   78.374756   70.584717   28.146149
H   21.405706   35.577496   63.391117
H   51.988003   94.622559    7.836644
H   22.510775   82.035980   81.599503
H   77.495193   76.540611   90.999741
H    5.395390   72.522507   78.419006
H    5.450461   16.718971   49.729679
H   67.332199   58.416668    5.429781
H   28.328869   74.342239    6.957182
H   43.265190   96.028481   67.123634
H   50.442188   15.512978   42.441021
H   89.810921   16.408300   49.012535
H   71.254463   25.061459   85.121078
H   23.956434   65.142349    3.511215
H   71.235847   75.974716   17.643360
H   39.014286   16.289169   32.737473
H   86.436623   23.309641   85.690498
H   97.380623   91.434013   87.132965
H   16.273495    5.758653   62.068405
H   45.277260   41.507980   50.982967
H   58.468235   76.471062   73.094101
H   32.337212   24.005829   44.813828
H   77.271622   25.542080   99.730156
H    7.637314    9.118554   60.368858
H   79.059799    0.758267   67.941856
H   53.136826   19.323738   62.923214
H   95.457169   29.689604   72.244591
H   26.814512    5.842472   48.206902
H   11.477341   29.381550   35.093494
H   68.381569   90.705986   94.593597
H   43.071003   30.220356    1.237526
H   26.328669   68.716125   88.073631
H   11.027023   13.589517   90.484528
H   24.902336   61.630699   93.623383
H   39.157490   99.249832   57.980572
H   24.469999   86.019241   27.928539
H   35.541485    2.769523    1.755276
H   75.389702   18.804871   11.178164
H   65.473824   72.033257   77.140854
H   23.479191   85.733398   54.942516
H   41.536259   34.832367   80.785622
H   84.104187   88.474045   98.215103
H   46.927162   16.941046   95.929192
H   60.341759   94.685135   68.912460
H   24.947527   57.020889   67.648239
H   69.561958   27.552792   29.390808
H   79.210640   14.521288   98.027748
H    7.087128   28.329935   48.527294
H   37.176521   69.848152   52.856441
H   67.082718   97.813629   27.248697
H    9.553938   80.232849   68.610176
H   90.312004   76.550667   65.903214
H   23.034292   37.425766   30.405016
H   21.539539   67.926559   89.884392
H   25.348019   27.564724   24.860588
H   87.145981   27.115601   44.218494
H   65.326706   30.009863   56.291809
H   64.792427   34.005611   19.012280
H   72.618668   40.178013   98.794106
H    4.141868   28.157988    5.503005
H   47.102444   96.127609    0.790926
H   85.712883   63.169247   90.431427
H   57.215618   80.193428   94.087631
H   63.247887   19.548258   75.134491
H   64.083855   81.677078   27.018099
H   14.324167    6.002096   78.618599
H   32.862743    8.344143   84.098495
H   40.806629   26.651932   34.118431
H   18.596500   57.450802   83.885620
H   70.597900   46.535152   49.081631
H   40.481514   21.712917   87.749207
H   18.591133   27.645855   47.982258
H   32.067635   22.117794   23.821495
H    4.180445   67.570740   18.171740
H   77.125832    9.125411   93.044647
H   47.465893   62.160889   25.666542
H   95.560631   49.157242   71.325104
H   75.581787   87.515068   34.943455
H   92.381577   52.737053   85.049789
H   67.405907   24.182524   66.382355
H   48.326385   85.435638    3.143839
H   81.968689   85.981949    9.161908
H   92.460609   82.254166   97.323082
H    1.263826   12.823480   49.620922
H    4.080278    1.496690   56.738548
H   62.544518    1.635834   83.784729
H   68.881126   86.546684   54.990189
H   91.158638   64.439461   83.308975
H   46.130264   44.235741   71.551743
H   43.444153    9.425659   95.651993
H   50.271107   63.274517   14.683830
H   57.560547   40.798138   46.083710
H   55.230526   56.632149   99.620354
H   58.033836   26.781092   78.008430
H   39.972904   69.999229   48.839649
H   45.683651   61.855114   30.181423
H   44.565697   96.808449   47.332016
H   42.843582   73.679260   68.865135
H   64.998138   65.084518   98.014046
H    9.238838   88.598373   90.258888
H   76.466957   61.191067   51.397041
H   33.492702    7.303388   48.371693
H   75.850563   32.100330    3.710342
H    9.724847    0.982065   76.125504
H   13.334961   53.694176   60.626560
H   63.294296   43.511547   53.845600
H   59.237988   60.673676   80.672897
H   45.946545   36.772209    9.560137
H   12.702178    1.760708    2.864512
H   63.758156   57.229431   77.972443
H   53.887188   84.693771   83.602005
H   43.932766   23.092577   35.604618
H   64.918037   34.875134   37.234962
H   11.017737   19.974022   71.498291
H   59.021210   21.850840    9.755765
H   11.793092   64.661949   62.340088
H   75.020370   97.680183   52.147491
H   23.626099   30.614079   47.723255
H   93.977844   28.192974   36.873463
H   26.153507   10.512539   90.482178
H   79.498718    5.550573   35.976662
H   46.404762   65.707092   57.436619
H   37.537693   77.755020   90.620987
H   71.310417   74.712082   74.081833
H   71.763214   95.089203   99.560562
H    0.691254   47.623039   23.280029
H   35.489655   52.702480   86.615143
H    1.667963    9.194183   64.790695
H   75.780586   21.542292   69.216713
H   86.633514   54.380013   86.286255
H   81.545616   84.938568   41.882053
H   19.086475   30.097500   69.360619
H   65.957397   90.173019    5.931485
H   51.328499   25.207375   76.932762
H   85.432442   88.637993   78.425674
H   99.113884   36.164703   83.919167
H   31.108295    4.644473   99.110062
H   90.757347   66.928047   25.281614
H    6.821093   61.142189   66.463409
H   49.486279   58.311390   65.614578
H   47.485870   31.255939   79.351448
H   47.710300   84.738968   24.713549
H    3.944984   17.357492   57.645863
H   35.225864   63.251690   33.172211
H   85.134827   54.568001   21.839182
H   75.311050   10.366269   29.662275
H    9.414750   85.368538    3.230506
H   29.112926   97.545303   47.164127
H   12.006657   11.592308   78.330132
H    8.080749   35.229889   97.846046
