100
TIME:    2.086, STEP:  2086
H   76.254791   30.724411   97.236221
H   43.244392   17.843977    9.584322
H   15.611288   23.978954   98.848427
H   81.826736   46.707481   25.822014
H   76.486938   39.959614    9.145151
H   95.669930   98.948174   85.329430
H   43.642773    2.193362   53.580772
H   55.930809   69.066589   16.663902
H    2.350104   85.732925   68.781944
H   17.835360   46.335228   89.374779
H    6.220383   50.177174   38.815441
H   76.224609   28.250872   44.444923
H   10.572425   35.501610   17.797764
H   51.794914   98.646217   15.985126
H    5.873053   83.697479   50.501137
H   17.651241   29.280037   59.885513
H   56.356171   19.947517   63.278259
H   45.721466   93.258308   27.228279
H   77.753380   65.865677   73.260040
H   36.317642   61.512966   58.357216
H   40.490433   48.550022    0.627131
H   62.367130   46.853218   41.636093
H   57.892921   77.656914   72.667130
H   25.229546   61.700016   52.150421
H   54.976311   20.735497   51.952820
H   37.094120   65.450150   93.651558
H   82.201027   55.766140   41.360722
H   56.530540   53.807140   35.723446
H   56.528915   38.349922   58.565758
H   80.980171   39.211655   49.219357
H   98.159065    9.107756   44.345951
H   97.468628   94.879753    6.152584
H   17.292336   15.860638   85.720306
H   66.239677   82.553360   83.871628
H   28.920555    1.234406   51.750275
H   53.924328   48.350826   13.468865
H   79.873199   28.143007   72.833984
H   77.772118   20.774364   69.643654
H   57.023941   35.965088   42.163033
H   66.714638   16.898668    2.155886
H   92.686699   27.759405   91.489792
H   44.143402    5.477445    0.803958
H   29.208776   76.009064   52.146660
H   46.153664   47.732613   84.691818
H   75.709892   49.586605   34.615387
H   51.175274    2.704029   91.640541
H   58.025715   38.282013   45.479118
H   56.350819   16.860682   97.647820
H   26.006239   59.685848   61.264839
H   69.637840   62.499653   37.766743
H   43.385471   68.253654   75.411301
H    6.509008   70.174652   37.120213
H   52.151474   34.104065   81.718559
H   28.386303   73.173775   23.865480
H   74.694336   41.374981   18.106886
H   96.176285   10.339663   21.614441
H   28.495218   29.356575   54.383430
H   70.729095   79.890488   59.825272
H   54.794327   26.907663   51.340569
H   21.364704   88.124542    4.279557
H   91.286819   81.562813   51.754002
H   24.875706    8.527628    0.968191
H   15.724522   64.903755   90.450363
H   86.281433   53.141815   70.508156
H   15.118255   94.238403   89.826324
H   73.199013   38.571724   69.525948
H   20.204988   20.481779   67.774368
H   36.271599   36.838318   65.925461
H   60.869934   99.899681   29.402107
H   72.644348   53.063843   97.340607
H   55.792763   53.468369   37.129154
H    1.967460   82.294708    9.348425
H   70.980469   15.125042    8.259708
H   84.283195   17.372976   79.231377
H   62.744240   31.611830   59.530987
H   74.974419   41.265839   55.567326
H   56.350952   45.746666   27.941267
H   29.984402   14.321810   29.641872
H   61.542038   47.391453   40.951164
H   97.223885   95.345703   41.210365
H   51.703503   50.862286    4.664425
H   97.837418   57.850723   12.347322
H   49.784130   42.074524   28.580967
H   93.667610   90.663307   72.896820
H   50.758850   18.403099   45.538086
H    3.278970   85.677254   86.641335
H    6.473959   51.683731   23.011961
H   89.535645   38.284241   74.055244
H   98.971870   78.027214   11.133490
H   81.908279   23.451202   98.788368
H    9.390381   86.069382   77.514236
H   32.630726   52.391697   73.268456
H   19.125679   90.136459   80.293655
H   48.848148   39.764065   67.465645
H   20.525913   62.879478   64.020683
H   66.216629   13.357746   59.704346
H   97.025833   87.391884   17.221771
H   14.524219   33.998718   22.659256
H    9.341080   45.842220   70.315445
H   68.788986   25.122189   96.773834
