100
TIME:    9.962, STEP:  9962
H   43.632233    8.459205   90.025528
H   25.349934   44.691059    6.240299
H   51.008472   90.610497    6.400700
H   83.148697   22.216494   94.110977
H    5.931223   71.255219   95.595924
H   73.539307   90.415520   65.316948
H   30.862064   34.020340   69.494553
H   36.892746   50.440830   93.515556
H    8.742897   28.486233   73.016045
H    2.658805   59.424564   97.773323
H   73.613983   67.083801   80.156181
H   75.620552   23.033352   83.823280
H    8.505924   59.001266   35.111916
H   61.822800   74.370216   15.352200
H    1.604681   80.177887   71.825951
H    0.971490   40.416061    6.107475
H   23.022346   40.879196   80.268509
H   14.098815   10.087963   54.193642
H    0.431355   96.269989   88.210892
H   24.122608   94.258514   94.591911
H   73.117020   64.470528   86.856079
H   17.446991   57.308685   70.921967
H   52.734772   13.606018   47.358459
H   93.444290   56.002655   67.210739
H   73.286362   96.123367   10.106583
H    0.632529   32.423752   53.413822
H    3.044184   28.367769   97.624557
H   91.977242   21.432194   96.061852
H   27.785336   52.922428   86.263382
H   82.980736   44.280136   75.339149
H    8.122155   15.367910   21.217361
H   94.764206   77.270691   77.031853
H   72.068275   39.614655   95.252586
H   99.019699   60.764824   52.067818
H   33.029243    5.406779   31.149397
H   38.616566   65.702423   88.108223
H   35.284615   39.705818   93.432083
H   52.242733   76.647285   25.431908
H   24.572147   64.361778   78.920815
H   24.884731   79.573944   21.823706
H   54.419113   98.004547   77.044884
H   60.670311   80.675064   88.526604
H   97.020111   23.249043   21.038540
H   43.245235   79.861000   54.763760
H   92.496307   38.808567    8.570868
H   49.540009   52.920727   23.633085
H   19.577251   66.610352   21.097456
H   56.795650   97.975372   84.969299
H   56.226791    7.402223   47.054657
H   34.885010   82.370659   86.990089
H   46.752216    8.171951   52.398666
H   89.281906   39.339447   20.092394
H   15.504580   79.771790   24.294544
H   45.992142   44.666145   71.411934
H   47.605873   31.626596   85.066895
H    6.003418    2.054667   53.496796
H   27.799644    2.096848    3.456484
H   84.265091   36.099434   56.957176
H   75.963387   59.703033   46.702587
H    1.630554   93.500031   80.267616
H   88.114746   15.292387   37.687359
H   45.347069   35.217178   44.607101
H   50.411160   27.543047   50.369095
H   27.112431   96.030212   56.673920
H   27.731110   65.195473   23.286264
H   89.368744   47.033012   35.216045
H   88.298195   92.774780   48.027905
H   92.222145   87.274422   42.443817
H   53.408073   33.980545   35.433720
H   32.348007   49.008678   80.714386
H    5.684516   17.580830   42.656197
H   52.919952   20.823631   86.256073
H   57.451538   25.548944    6.321636
H   10.909603   18.925705   11.245695
H   42.349739   42.983768   56.627110
H   61.168785   46.044003   25.613445
H   71.544868   63.564945   67.423241
H    0.004906   99.339226   64.615868
H   39.227043   24.257183   28.834208
H   10.980041   66.341866   62.686043
H    5.837928   32.343822   75.398613
H   88.836235    9.084802   53.582169
H   47.992271   73.718178   78.673828
H   35.518909   64.629227   53.541916
H   67.265427   25.737320   82.050171
H   22.014446   74.976189   33.574848
H   32.494373   79.033287   98.569679
H   16.243900    7.908505   92.293335
H   62.424564   39.503593   46.714485
H   85.564362   99.410751   80.333221
H   31.709402   11.349708   43.841331
H   15.386019   44.716782   23.342089
H   24.036777   26.424200   89.381340
H    6.115694   17.257931    4.566947
H   84.353226   57.395226   45.001106
H   16.741989    2.344426   52.898712
H   71.865685   39.376358   64.264297
H   19.048342   79.379730   78.886559
H   34.146172   79.820518   10.615063
H   57.988319   22.994484   38.069019
