100
TIME:    1.187, STEP:  1187
H   37.049965   13.167303   98.059280
H   68.251671   69.103767   52.875820
H    0.158802   59.301479    9.402542
H   81.675842   83.745140   75.100700
H   84.539200   67.900810   33.519997
H    9.609829   99.922127   96.297874
H   90.759941   41.490002   83.277718
H   26.590439   91.292862   99.206947
H   24.449272   72.168152   25.369276
H   42.401695   33.426918   54.173370
H   89.843185   14.003821   25.411955
H   10.534519   83.188988    8.437399
H   67.756027   89.892097    7.151176
H   96.308693    1.417519   47.571972
H   94.938560   63.996769   93.713882
H   53.797775    7.912289   34.509262
H   28.633652   60.495193   81.429039
H   26.509895   36.976974   58.395309
H   63.747780   28.149332   25.898508
H   60.536156   80.607040   97.149162
H   93.838379   38.048027   25.027393
H   76.165092   45.666641   18.183949
H   69.895866   84.968422   98.387726
H    8.756409   50.917942   18.917061
H   87.130486   92.035683   45.320335
H   41.216274   92.240723   77.914917
H   59.723358   93.134537   23.520918
H   32.385635   11.844674    6.008064
H   36.981262   56.785801    1.062971
H   46.507717   61.461685   77.751854
H   62.794956   28.488604   15.483120
H   40.704990   19.717804   89.377556
H   53.969204   81.635933    4.731289
H   28.255501   64.941261   21.744680
H   51.267082   69.192024   97.009598
H   75.759766   77.729141   16.560034
H   93.647942   61.065773    1.996365
H   14.931156   37.228687    6.205528
H   97.356461   55.169044   28.358490
H   51.390816    1.059754   31.424433
H   54.122017   96.911705   70.309738
H   24.940392   65.133018   58.567356
H   21.465162   70.618027   87.211433
H    3.561874   32.663773   96.792854
H   53.691406   85.057663   57.684570
H   62.773548   85.556984   87.991646
H   48.613697   89.772339   37.766060
H   56.302807    7.604696   42.022747
H   99.729790   34.141777   97.123306
H   50.784977   48.816296    0.645522
H   43.454060   55.046486   65.932404
H   62.818794   53.594860   96.136673
H   33.502327   28.891357   33.930321
H   49.202839   87.837944   84.196060
H   46.263405   62.564663   10.478630
H   95.051437   11.284466   52.218521
H   71.501328   55.296654   68.881004
H   37.671814   64.790199   82.980667
H   83.893059   88.921738   20.356350
H   80.688614   19.024267   29.848473
H   34.578045   23.371033   21.848244
H   56.782196   16.896927   41.647400
H   54.747223   26.209293   52.125343
H   24.548029   48.251472   94.911858
H   79.437050   66.041466    6.103818
H   28.425880   83.263832   16.370054
H   92.332962   89.400513   24.371113
H   98.371407   85.422531   22.948065
H   16.061226   64.496078   85.785866
H   54.430908    7.845132   99.233643
H   84.339195   14.637384   47.911228
H   76.092972   12.131300   43.528435
H   29.597637   59.590809   31.312222
H    4.065175   74.264816   32.661659
H   19.402325   30.332659   91.380180
H   53.722462   83.648582   16.059937
H   74.727470   23.665518   12.037592
H   87.747742   73.106712   79.994049
H   18.448038   50.025242   30.923931
H   41.312881   44.307991   18.659943
H   34.110615   41.561718   50.932568
H   30.384396   51.979568   87.520950
H   92.902382   27.068541   42.955692
H   31.824873   13.734719   55.010689
H   94.531876   74.637314   32.686028
H   23.971851   52.656513   24.212303
H   46.431770   17.048363   80.143784
H   75.063522   10.260506   83.403404
H   80.315865   28.081514   18.488445
H   61.391220   60.440849   66.647911
H   72.599464   37.526356   58.529003
H   66.112938   84.780067   56.138260
H   61.444069   63.195198   10.744246
H   61.956787   85.233315    6.852408
H   36.070545   43.405807   43.361900
H   91.962891   48.857353    6.138788
H   68.383896   35.799801   68.923599
H   11.223409   26.344269   37.044441
H   52.166039   41.966984   45.621281
H   12.958145   48.214832   83.360664
