100
TIME:    0.143, STEP:   143
H    7.652184    8.907496   99.015091
H   97.292381   12.497982   87.020935
H   82.221375   84.191994   21.660812
H   81.500610   26.759089   32.324615
H   93.890213   84.219604   61.827919
H   25.798870    1.058013   92.907036
H   45.475361   70.994637    1.635288
H    8.646780    0.974053   95.063805
H   50.112785   72.544495   91.085533
H   70.932640   18.440228   13.288576
H   86.953522   71.996460   25.975315
H   50.383854   30.858360   82.750404
H   34.166382   53.055725   10.916202
H   48.001499    4.636365   68.123436
H   82.242210   57.248215   43.898975
H   95.773621   99.229179   21.169422
H   12.569214   91.453926   86.374702
H    4.200569   87.746445   94.588669
H   47.491035   84.352341   70.895248
H   88.778511    2.533880   25.943766
H   55.790726   41.981644   53.360191
H   76.059547   44.288681    7.078996
H   83.834770   93.459206   28.259510
H    5.755306   38.396824   96.453857
H   24.468405   74.832512   37.614273
H   45.999973   23.351849   75.767784
H   49.748165   36.532696    2.803974
H   20.474884   63.113934   71.502731
H   14.280610   62.066006   50.412292
H    6.477251   87.300430   94.757103
H   21.726961   34.865837   98.096214
H   74.786499   48.559387   86.025871
H   80.430969   58.019554   10.679524
H   84.144127   60.617584   65.726967
H   77.217339   48.110519   33.436096
H   84.988243   95.719048   20.152288
H   93.514915   99.298027   19.732880
H   58.078087   56.336933   32.532444
H   44.292110   77.455360   28.420769
H   49.724018   98.795555   49.285492
H   25.469326   61.085384   45.707623
H   18.769150   18.274599    9.518609
H   12.473359   64.357468   11.802540
H   70.228027   15.168305   94.713516
H   44.251038   26.249825   68.344421
H   76.125099   65.892387   83.879066
H   37.590015   33.454845   28.845160
H   56.247051   96.854492   77.425980
H   69.207573   20.606190   38.769859
H   28.888952   32.925945   73.662613
H   43.530666   55.838776   54.929890
H   12.082746   50.470032   64.675644
H   11.845636   22.837891   94.564522
H   73.373795    4.869023   38.125996
H   29.375290   71.041672    1.619595
H   93.745163   12.381962   87.758743
H    5.318192   85.420616   69.587914
H   15.411566   63.381996    9.871544
H    1.556008   44.811081    0.504851
H   49.584282   38.779541   59.537094
H   68.721237   71.919540    3.247067
H   93.835785   26.614334   88.884140
H   83.932793   97.401573   23.747772
H   52.859550   42.572365   23.258177
H   37.997665   49.423489    8.878137
H   92.560768   35.164204   54.641140
H   76.095329   53.305096   73.966232
H   70.487755   25.715813   73.038826
H   64.031303   39.511253   51.264668
H   33.283600   55.337212    1.430058
H   17.491770   85.674599   60.432346
H   62.174999   46.779655   67.092506
H   97.667419   11.234020   58.082882
H   27.043419   40.330555   94.709694
H   69.064987   28.847170   12.238162
H   29.038656   16.737131   86.307480
H   79.938812   14.149845   93.562561
H   38.698730   41.369968   22.337257
H   68.408577   53.081486   19.282955
H   92.512466    1.165642    8.601599
H   13.680391   30.760603   88.535629
H   52.053364   45.161453   74.823059
H   26.844116    9.644185   43.519836
H   60.008011   24.398289   50.368721
H   45.367638   39.940048   33.889931
H   48.005863   14.303107   51.714756
H   76.705360   92.955650   30.361980
H   58.257187   93.845238   94.251854
H   58.650826   86.210457   27.031002
H   53.692024    3.403274   29.323797
H   29.874727   81.152634   36.481640
H   88.867180    6.261537   36.249435
H   94.459557   31.916288   29.977888
H   61.050186   21.906206   36.460552
H   54.119434   36.920765   19.373154
H    5.732823   90.084648   60.062798
H   51.251518   75.886909   28.964867
H    7.390368   17.455231   53.747231
H    1.899969   37.466709   33.073345
H   48.122295   75.030006   83.912949
