100
TIME:    1.885, STEP:  1885
H   89.847809   49.157181   97.420242
H   48.835564    6.946082   96.905540
H   12.156294    9.518737    1.207533
H   81.792999   54.988426   36.839840
H   78.287277   23.848576   14.594856
H   98.786018   99.165932   65.424492
H   54.176441   88.621605   37.862312
H   71.729012   51.677692   35.119675
H    7.291100    5.058285   81.433388
H   23.327620   43.449165   81.504814
H   24.916916   42.089451   58.175983
H   83.895218   18.175722   58.752556
H   23.357887   47.662331   37.775322
H   61.747383   99.265755    0.688398
H    3.428043    1.651742   60.163773
H   25.733353   46.860680   76.570084
H   72.516281    6.655067   44.978905
H   41.426109    3.032980   34.197067
H   74.621956   57.433250   62.669827
H   41.732460   65.781357   44.672188
H   52.418060   68.560425    6.082577
H   43.093998   46.587921   58.751579
H   60.576561   79.291634   78.417786
H   43.904610   59.289341   67.078812
H   62.165398   36.676315   50.469917
H   38.015759   71.440033   12.491540
H   99.532738   64.122208   37.372066
H   73.490463   44.425137   29.079943
H   52.158417   20.113943   68.067375
H   73.272758   44.186356   33.240200
H   90.252296   91.082535   60.249966
H   84.777313    0.434014   24.760155
H    3.133871   30.566216   67.612640
H   57.747108    0.973846   92.339661
H   33.917198   16.428780   39.511345
H   36.448467   32.560291   14.159711
H   60.594208   35.504250   56.995914
H   86.080666   24.453251   55.459629
H   65.979691   40.268806   61.459648
H   85.647331   35.715733   86.342239
H    6.423149   20.862452   86.754318
H   62.208130   96.456535   91.360657
H   27.477446   74.803726   37.628937
H   58.989128   44.363495   65.038376
H   93.145882   57.516376   17.414675
H   53.768436   98.870277   90.824715
H   55.983936   27.425783   43.730415
H   56.340084   14.791212   85.211067
H   20.131369   76.333214   69.282547
H   65.423759   59.440304   51.824413
H   43.400806   87.658669   73.291992
H   96.741066   88.825180   50.316051
H   47.981865   32.938599   93.391624
H   33.040501   76.452415   14.996435
H   90.694962   23.753798   16.401625
H   95.924789   10.550903   28.456955
H   15.753290   35.156303   35.266716
H   85.696136   98.872253   65.002396
H   38.942451   18.414328   66.771988
H   34.628017   72.675980    9.996093
H   78.607773   90.911079   67.425255
H   32.008820   10.398891   10.063193
H    2.090496   78.610252    4.239762
H   72.479858   52.048424   75.964378
H    7.140157   10.291814   71.108322
H   85.546822   48.564064   57.641262
H   36.331924   13.532823   58.070324
H   50.155983   25.342697   56.316502
H   50.851524   14.342239   42.009079
H   68.571350   42.953423   97.763855
H   62.175224   67.145378   39.539829
H   18.540525   88.965469   94.632317
H   84.085831   25.066776   13.413830
H   88.705833   30.092661   91.177406
H   53.054001   31.325830   44.294048
H   70.223610   28.383051   69.091911
H   38.100670   63.168854   24.385828
H   20.541058   27.464743   18.540806
H   51.907005   47.980320   38.709175
H    7.081412    6.292353   58.526741
H   47.770054   48.782848   92.651100
H   82.756897   56.538040   29.155340
H   37.066746   38.719208    9.436781
H   79.841499   73.463478   91.255981
H   60.545700   30.976334   65.022842
H    7.905373   78.294945   72.683342
H   93.049599   66.298065   13.427431
H   86.299942   54.376877   76.146950
H   94.800728   89.218758   12.777794
H   99.678574   31.721413   91.602348
H    1.164487   75.215210   73.269485
H   17.758196   37.275433   69.437752
H    6.229641   84.112839   64.743881
H   29.420132   27.571421   53.913643
H   24.001610   80.882965   59.401756
H   49.614868   21.294546   70.086197
H   12.980136   75.856834   28.781357
H   13.786218   32.287323   25.875790
H   18.915806   44.975788   87.153366
H   56.306229   30.284744   16.133228
