100
TIME:    0.707, STEP:   707
H   69.510902   57.185799   98.498734
H   81.603722   43.077877   22.597502
H   91.911682   24.768173   15.038528
H   81.595276    3.520853    1.409429
H   88.838516   29.426689   46.535133
H   17.053066    0.444170   48.762524
H   15.917034    9.076870   45.741093
H   64.317490   49.765797   43.280037
H   36.248589   18.318359   55.584938
H   55.519371   26.536282   35.375763
H   34.491608   94.690369   71.646950
H   28.856052   59.128929   42.603615
H   98.290695   18.933105   54.858269
H   20.075169    2.897424   11.042431
H   89.101158    6.872355   16.787115
H   73.097092   49.898373   74.353012
H   67.224800   28.752029   37.725426
H   16.252327   60.319260   75.035934
H   56.273415    8.011394    0.611540
H   73.511543   90.708832   64.420998
H   22.322159   85.833221   38.054497
H   30.139698   45.033096   59.056751
H   76.304558   88.872231   12.121449
H   53.353577   45.161106   54.567696
H    4.298153   30.104092   41.779076
H   43.417202    6.543810   22.906397
H    1.112953   13.087367   13.995771
H   72.885704   89.439560   90.143234
H   26.544250   13.236726   23.751705
H   28.102343   73.341568   39.592678
H   43.913120   85.443047   53.465721
H   10.397545   32.978302   33.813530
H   20.157589   16.754786   61.489098
H    7.974378    8.930354   41.965919
H   63.198235    5.476342   67.778641
H   34.026367   40.024059   18.211645
H   47.609203   78.643898   64.174141
H   34.768852   46.014088   72.331596
H   18.935768   65.415627   74.364746
H   96.602196   45.996540   93.659233
H   86.926086   80.439537   58.999523
H   68.080040   43.589020   36.016087
H   17.330641   67.739609   52.539795
H   34.212097   24.619799   49.859261
H   95.328682    3.997552   16.607374
H   68.921913   76.494926   86.090797
H   43.545338   63.881207   33.664497
H   56.277172    2.662617   12.323043
H   85.696587   73.894882   16.271090
H   40.717838   41.510387   34.216156
H   43.490681    1.386871   60.871372
H   39.491158   98.134293   27.648590
H   23.545053   26.108154   61.809959
H   60.317341   95.667534   63.014423
H   84.475555   20.483866    6.405449
H   94.450851   11.788921   68.558853
H   41.071960   69.146751   23.229149
H   73.414001   10.119728   95.343948
H   46.035912   68.640976   57.207577
H   12.364694   82.130295   43.500816
H    4.298401   45.691589   59.271339
H   73.818329   21.364700   63.367371
H   22.187962   58.941551   85.055031
H   91.587593   45.640388    7.943876
H   60.386063    4.376691   61.403648
H   57.913185    7.126013   87.989220
H   30.845152   72.803833    1.195560
H   31.528587   57.971359    0.001289
H   92.138359   98.985825   15.889885
H   44.708008   83.703758    0.244049
H   99.580894   47.298763   53.668064
H   15.671961   28.061699    8.384401
H   60.894165   83.335243   43.620571
H   14.629445    4.638706   61.189491
H   96.259811   29.649675   54.993458
H   42.373585   52.885544   48.356983
H   31.145645   65.267448    3.544257
H   65.196472    4.491289   53.486248
H   95.439888   51.431492   25.571758
H   64.852921   70.450890   60.012482
H   24.717304   36.595898   22.244225
H   94.369652   48.844803   27.659294
H   62.529026   19.057676   97.238220
H   98.804108   72.660500   98.853462
H   17.904352    4.659747   79.216789
H   35.020435   35.023457   90.879372
H   14.373663   51.948265   57.255596
H   67.336472   48.689781   88.391197
H   70.354927   54.807320   22.416058
H    3.827893   80.193604   49.487270
H   52.955906   11.608168   48.392284
H   30.597795   48.678993   46.993973
H   30.645809   48.814095   73.610191
H   15.561535   56.118553   74.487160
H   44.368885   86.400726   32.331627
H   52.316895   67.812431   30.931633
H    6.484327    8.253673   96.528580
H    9.461019   22.257355   44.723885
H   75.032249   39.897892   85.829567
H   83.148544   60.545155   29.592051
