100
TIME:    5.060, STEP:  5060
H   75.135414   57.993538   94.513443
H   60.730232   79.058258   97.154419
H   66.732666   37.940186   63.951450
H   82.325912   24.178772   62.808800
H   49.849091   78.338821   28.506672
H   49.557110   95.726219   79.855278
H   87.775612    3.012118   86.151596
H   22.180275   26.356396   43.601887
H   29.243477   99.794907   81.578331
H   36.562920   89.037468    5.832265
H   29.586151   69.842667   52.344173
H   62.717110   77.322380   32.752174
H   21.177933   55.602303   22.234863
H    4.540273   89.479530   42.308792
H   42.048653   18.047899    7.541948
H   98.071472   69.162918   13.016712
H   17.212166   16.651096   34.020111
H    9.272624   48.614803   24.119959
H   24.079628   90.625763   29.942553
H   56.189705   98.360878   60.840950
H   64.009148   52.479004   19.907547
H   47.487473   50.801208   88.372559
H   18.185738   53.469566   87.577103
H   48.911434   97.360565   31.273117
H   48.609039   84.876266   73.909096
H   23.479986   77.071960   14.598829
H   25.749048   32.138271    0.363073
H    5.594199   92.623413   34.029198
H   21.196220    8.175005   17.983227
H   95.016769   65.604668   85.644356
H   15.197520   75.795029    9.047844
H   85.248787   12.711167   30.834480
H   26.776516   98.269142   53.641716
H   91.898071   10.003909   58.581200
H   54.993668   76.422836   32.846771
H   12.494969   81.749382    3.518582
H   65.117920   19.227657    7.173535
H   54.851460   66.355904   79.511299
H   31.488262   71.168571   53.960541
H   86.597862   38.483017   36.144474
H   89.436935   29.804182   61.557110
H   76.856499   38.953354   40.521168
H   54.825581   93.843262   66.961891
H   56.244411   97.574707   75.475632
H   17.738543   32.249855   89.108055
H   12.806316   59.428577    3.717279
H   81.265915    0.017174   74.037621
H   56.509647   47.486328   81.662071
H   12.940582   13.381100   42.628998
H   32.001095    7.747786   29.761162
H   43.158573   81.132950    6.767411
H   51.038643   94.208984   41.882866
H   13.830846   51.348328    8.991606
H   59.510841   24.644539   55.099937
H   37.910645    2.038646   43.385593
H   99.897415    7.211094   20.372467
H   17.034546   43.542686   37.235634
H   49.277237   99.032753   83.220810
H   89.348442   52.566681   23.023693
H   25.111309   16.716053   19.692146
H   78.889160   43.258190   19.878929
H   19.326704   80.844315   66.407166
H   17.583326   61.997849   86.491058
H   90.500648   69.327118   89.759796
H   33.161949   56.711124   66.784813
H   90.502312   90.725578   45.370018
H   81.595001   23.300472   11.358734
H   30.837090    6.923612    8.099860
H    9.090778   86.207008   42.878777
H   32.902054    2.644789   91.078217
H   61.354851   51.117828    1.448253
H   56.746185   83.593292   27.090908
H   77.069702   68.016457   32.010002
H   18.819118   29.171921    2.506061
H    6.135022   35.853786   84.980072
H   45.281044   31.870874   55.454754
H   26.369810   87.979195   80.537148
H   69.708328   19.858997   93.883919
H    4.159598   38.655910   74.139427
H   51.373260   33.374729   84.997772
H    9.888254   81.629684   82.413521
H   20.983078   77.273209   63.663475
H   37.931358   91.740417   11.832044
H   98.270233   45.154465    1.264895
H    5.948735   32.378960   57.242134
H   34.835850   94.916054   93.164841
H    5.100698   35.449707   64.823853
H   37.403580    0.179215   43.121651
H   60.692978   12.439810   86.806526
H   18.966387    1.091682    5.101241
H   31.098747   46.656597   40.319744
H   52.687656   76.039780   29.941336
H    9.809207   79.347298   10.302143
H   36.296173   20.158667   67.987190
H   69.106667   96.484978   32.358433
H   11.856887   95.918365    6.093315
H   60.963280   58.063671   46.183884
H   25.438787   59.320557   75.063301
H   67.666382   58.661968   21.208710
H   53.505985   48.784809   10.294330
