100
TIME:    6.376, STEP:  6376
H   86.139725   37.310417   93.308609
H   24.385460   50.371014   80.133217
H   89.363464   32.618385   48.499454
H   82.546799   69.959015   90.672363
H   38.061798   83.821945   92.826447
H   29.145214   94.300499   10.182560
H   18.804485   91.875221   89.064583
H   18.745270   40.206631   22.770397
H   96.893623   73.266953   98.739693
H    0.608212    7.933840   57.363926
H    7.175034   22.794516   25.581242
H   12.485573   43.286442   39.077965
H   37.201035   76.020988   91.470146
H   39.379036   85.423256   42.456982
H   58.048897    0.497088   44.280270
H   45.159180   54.060768    3.776981
H   11.387166    3.694559   53.820778
H   37.414936   84.583008   78.499550
H   44.573788   45.835396   99.275818
H   20.737465   70.408730   50.440331
H   85.915848   21.466160   84.187035
H   73.653671   52.548218   76.302994
H    0.613472   42.766624   49.926041
H   26.635296   13.103731   33.535946
H    1.542700   80.511398   83.628090
H   17.480917   38.169235   90.846931
H   12.268909   77.435257   26.476713
H   94.553757   54.049828   77.530624
H   49.811028   27.572372   55.774933
H   45.476795   33.033989   90.262650
H   66.993172   93.804100    4.930144
H   68.341797   76.348175    9.005760
H   19.473644    1.984314   72.197388
H   47.503334   89.400436    3.141270
H   22.275269   76.917397   12.971250
H   26.892187   84.824196   99.380135
H   91.340462   71.032349   10.869119
H    0.462041   42.270245   72.377327
H   75.940308   42.493523   26.430281
H   62.644550   15.283279   39.684879
H   99.497757   74.957771   92.561501
H   62.879425   66.606628    5.466491
H   66.159149    1.735548   62.018112
H   72.213577   19.663717    4.147692
H    3.585369   80.327011    1.721374
H   95.822899   84.529282    9.064413
H   91.547165   71.586441   86.668297
H   56.579929   61.040710   63.088673
H   51.404907    4.390400   90.132584
H   59.605846   27.779173   37.721886
H   43.063786   54.082001   20.639732
H   14.995939   72.094894   55.491493
H   41.130177   58.978943   32.560223
H   29.038582    3.169873   13.171809
H   33.128807   17.366840   54.580509
H    1.537060    5.826790   75.572708
H    0.463605    5.569646   62.398109
H   51.285309   74.752907   49.324814
H   93.138885    8.171050   21.997337
H   38.268280   17.868252   82.261986
H   61.903675   82.057755   17.273365
H   72.621223   68.595169    6.859012
H    6.926630   72.196205   96.248993
H   80.868637   76.495880   54.033665
H   85.397430   51.604267   89.337822
H    9.659340   25.303093   23.182722
H   76.009933   68.795013   74.895279
H   39.931923   82.187233   71.012268
H   74.682045   91.647644   60.342449
H   59.559006   68.837822   88.307098
H   19.565697   61.578140   85.664558
H   48.236340   39.918060   23.442303
H   91.263657    2.924683   98.265198
H   89.849297   45.881786   24.312956
H   69.582146   37.731319   84.741837
H   76.391884   16.214146   66.904297
H   45.859951   73.942284    3.820853
H   31.536404   33.808998   66.563881
H   67.263695   34.790401   88.818321
H   86.840317   61.688820   71.623100
H   35.640984   95.244308   61.067539
H   19.747263   85.820145   53.587688
H   21.170883   13.747485   37.161621
H   88.808189   57.767357   81.067802
H   41.871330   50.063522   29.670593
H    4.544459   43.255638   84.551910
H   92.993340   39.765648   27.575750
H   58.572624   94.859619   29.468613
H   88.002548   39.166283   76.043343
H    2.614127   46.951107   52.142334
H   84.954826   17.717911   68.111252
H   50.058331   75.015579   55.011925
H   94.167480   18.830425   12.070445
H   63.481983   99.997749   56.722870
H   46.355385   78.606674   62.599766
H   20.553085   43.949860   38.120377
H   56.505333   33.585083   70.499695
H   25.970171    1.944083   50.882210
H    4.975235   64.335320   10.979736
H   35.248821   15.016811   83.520287
