200
TIME:    0.410, STEP:   410
H   14.694972   61.910801   18.246471
H   29.479502   35.359970   96.798500
H   14.574582   76.579025   53.721611
H   23.572964   78.960762   40.054237
H   13.405210   88.037872   51.214310
H   84.088196   48.200928   60.517532
H    5.822219   55.183510   52.941845
H    6.698232   96.227386   19.038052
H   94.332390   84.957626   43.572269
H    4.876900   72.517601   89.366982
H   18.119112   98.225777   98.333832
H   31.480774   46.560387   20.842413
H   15.346614   92.649818   54.324211
H   96.368431   53.924175   50.457638
H   11.414239   73.253258   42.560310
H   24.345211   18.961933   50.655746
H   92.204697   15.680439    7.178284
H   32.525276   91.339417   40.493824
H   70.681625   23.547340   44.986389
H   90.597099   77.370079   30.880680
H   60.125252   85.244507   18.052006
H   86.244392   55.312325   64.023560
H   89.914497   61.305420   45.057152
H   12.209020   89.609093   91.053017
H   10.635564   19.541166   39.344296
H   18.520369   69.880768    1.341848
H    2.187820   62.207859   55.917038
H   98.411652   77.142296    1.178588
H   18.228664   51.362495   37.342918
H   85.367310   25.318426   92.745316
H   13.139544   58.551609   16.402657
H   28.834660   67.490707   97.788536
H   23.015709   12.643557   75.255646
H   90.800179   63.763390   41.261719
H   39.830326   82.776474   32.925983
H   27.508163   46.045876   81.425865
H   91.143768   70.759796   87.231178
H   24.506115   49.152782    7.523914
H   46.778519   40.313160   48.210434
H   88.452423   38.989407   57.055756
H   80.554893   97.282471    7.166948
H   21.800920   39.542091   34.790359
H   73.640945   83.876671   56.640766
H   36.902542   71.490578   24.828333
H   34.585426   81.481842   50.498711
H   38.667480    9.414278   44.536747
H   83.177734   17.883514   99.906578
H   85.977104   65.548012   41.536209
H   93.654846   22.300900   61.288898
H   56.033833   18.568678   98.520248
H   74.164200   68.344398   21.131481
H   14.639547   38.624004   67.196663
H   56.761002   89.557198   10.152253
H   19.876476   85.771194   84.220634
H   70.003159   72.604187   85.275383
H    3.126375   68.162056   84.214935
H    4.945326   17.388771   47.831013
H   69.265976   62.531345    2.235150
H   24.593992   77.761459   11.238128
H   39.171444   95.034584   63.851608
H   49.868942   12.059660   37.269653
H   92.991264   16.827600   50.369015
H   76.130768   28.728140   79.149597
H   28.244976   65.394875    7.463085
H   74.081146   78.613403   24.881182
H   32.071190   23.165758   35.919022
H   79.825050   19.576115   89.347389
H   96.389427   91.836433   90.637260
H   22.569410    8.150554   59.828087
H   44.258381   44.592976   50.973515
H   58.390587   79.532425   77.828613
H   27.362686   19.353354   43.574833
H   82.889297   28.602093   93.803238
H   13.403703    5.227983   65.521523
H   81.215042    3.623484   59.619324
H   57.610710   13.074828   61.766594
H   94.709045   36.278893   69.740944
H   20.258644    9.065546   42.154396
H   12.823017   37.267338   31.173275
H   65.714523   89.718842   86.199493
H   50.583294   27.228876   98.609924
H   34.111469   65.533226   82.601799
H   10.336461   15.531058   85.305733
H   19.130377   67.418526   99.392303
H   32.854485    1.121521   52.964500
H   29.456699   79.826294   24.243965
H   43.474426    3.138351    2.161059
H   73.917763   12.217171   17.854218
H   70.888931   72.471039   77.783081
H   22.592651   93.667015   52.995235
H   34.116470   36.360348   79.998337
H   82.871269   90.027008    2.077221
H   55.335445   14.944813   90.888138
H   52.404766   88.326088   73.772560
H   29.432552   54.626625   75.020088
H   62.231972   31.510147   21.068613
H   81.611656    8.399237    5.650693
H    2.221289   31.080368   50.203144
H   33.165825   68.075073   53.483704
H   70.160286    0.689884   27.291910
H   17.450956   85.126709   76.944862
H   96.893867   79.228516   64.926872
H   26.703337   30.957281   32.878498
H   30.044714   68.253357   96.913239
H   25.113386   25.238655   30.599125
H   94.153221   18.449728   35.931747
H   73.711357   32.207645   55.468063
H   63.749752   40.801514   12.168005
H   77.116859   37.943771    7.352955
H    9.827739   25.690126    6.369288
H   49.431213   94.589500    0.915458
H   92.820053   67.620300   92.447578
H   54.141426   82.247391   90.237633
H   62.648308   15.732357   70.570129
H   58.177193   89.047577   20.811985
H    7.100694    0.823998   86.603531
H   25.585423   10.836480   86.161911
H   39.908611   35.364056   30.580376
H   25.318468   64.096130   75.137711
H   75.268944   50.067806   55.684425
H   42.328865   22.889118   81.949226
H   10.953930   23.452854   53.188736
H   36.334908   14.652737   29.072199
H    1.572612   61.201187   10.420643
H   71.829552    4.742953   87.190651
H   53.950527   67.003693   22.249010
H   91.161018   49.983688   64.489365
H   71.710182   88.903282   36.438351
H   94.559776   46.330067   81.016136
H   75.985016   23.343586   69.397804
H   55.471367   79.115753    9.908001
H   75.174812   87.737473   13.336003
H   91.882637   90.865685   98.639725
H   92.584763   17.361698   51.799740
H   12.824267   98.296265   48.605072
H   57.830261    1.408671   81.177101
H   69.174164   86.997719   63.801567
H   92.668388   58.912991   80.512291
H   50.756744   46.711029   71.509880
H   43.540031    0.936518   90.733826
H   59.033871   58.069389   20.401398
H   49.412216   46.176117   50.209866
H   49.540604   59.889996   93.650223
H   49.923317   20.373945   80.941505
H   48.292736   64.129028   54.627476
H   52.168961   64.904800   21.704269
H   48.751945   96.033318   46.064663
H   38.010490   67.090645   67.849632
H   69.729950   57.694534   96.254471
H   14.880997   90.530800   83.635162
H   70.228096   64.197067   50.060818
H   40.943550    2.405885   42.824913
H   84.073166   25.482006   97.496765
H   14.403824    5.044842   71.751549
H   20.353680   58.368595   63.829041
H   68.548714   43.950428   59.291100
H   61.090740   65.981689   82.768723
H   48.463020   33.932312   13.706886
H    4.601244    1.093777   96.300407
H   61.773739   50.007477   84.764969
H   55.625832   77.502876   78.895851
H   35.622387   22.175316   34.071236
H   72.537010   27.158043   37.161366
H   17.514734   25.173748   63.925240
H   57.326454   27.856756   11.494915
H   14.842639   59.030170   61.372524
H   71.972511   94.817329   54.023876
H   23.780720   38.667206   55.042439
H   96.382912   27.617365   36.455513
H   34.230942    9.176822   88.488983
H   76.117310    7.655513   35.961807
H   40.290138   59.132828   57.980156
H   40.957588   70.149551   85.640701
H   69.132584   70.471565   78.183441
H   63.536560   93.757706   91.238029
H    6.156022   48.579124   23.449842
H   33.671337   58.231705   94.019402
H    3.236667    9.362984   67.053970
H   71.254036   17.427614   67.146545
H   78.213753   56.278679   88.783150
H   78.314102   91.281410   37.766701
H   22.656603   30.313564   75.822296
H   57.808552   89.989365    9.434651
H   55.182915   25.535007   83.444405
H   87.721375   80.960953   77.696457
H    2.819323   37.658249   84.805031
H   37.271484    1.612599    3.031921
H   82.253860   74.425484   31.474899
H    1.695301   61.931499   68.486313
H   52.704964   57.348553   67.850845
H   55.941418   25.399918   78.087471
H   46.259293   89.549103   22.459051
H    7.876597   21.568386   61.700447
H   32.133442   70.315720   36.739300
H   79.060715   46.662067   21.260197
H   75.743179   10.800592   27.237289
H   10.591289   90.194878    9.204694
H   23.968904   94.027504   42.172363
H    9.646321   12.087568   70.414070
H    6.234660   29.233269   95.386963
