200
TIME:    0.164, STEP:   164
H    7.135814   62.727222   14.040024
H   27.286894   31.768623   86.811882
H   19.730640   65.811646   41.604790
H   15.280675   76.085457   46.487076
H   16.017056   81.803040   54.751198
H   92.091003   54.877754   67.799187
H    2.258146   55.358055   48.180325
H    1.185505   85.604523   27.770008
H   84.342018   88.645599   49.573437
H   13.536556   75.963463   99.070198
H    9.544632   92.970650   90.559998
H   30.463531   39.994293    9.120996
H    9.308848   84.485603   64.406548
H    7.996044   52.886288   38.603573
H   23.291204   71.359535   43.165588
H   31.515644   29.097759   55.962486
H   80.632156    4.159081   19.121967
H   38.366913   79.513504   44.873409
H   62.496769   32.453350   41.365044
H   89.814461   80.748375   40.416859
H   57.172997   72.964401   29.322376
H   91.720985   45.909401   73.503433
H   97.281059   63.094040   50.959785
H    7.004986   87.375877   91.823700
H   99.943108    9.647301   48.122234
H   18.724005   58.963673    9.466650
H   97.424141   57.271793   46.026138
H   92.766144   66.994270    0.531297
H    7.867621   58.839790   38.783386
H   96.483780   18.728403    1.254819
H   13.460716   48.274082   16.101894
H   33.308086   61.725082   91.732002
H   28.959633    7.350189   72.250839
H   98.941872   63.495003   36.961899
H   51.635593   92.941391   34.797184
H   35.543816   51.654785   78.604988
H   84.083130   76.069351   85.384377
H   36.674259   42.789387   18.584549
H   55.883026   49.122066   42.742287
H   90.811600   40.001019   66.665131
H   80.481697    8.774010   99.001572
H    9.556475   44.700562   42.084663
H   78.070267   89.527809   47.506229
H   37.450577   59.543022   16.030218
H   26.180365   73.976395   41.621300
H   42.129295   15.816383   41.861324
H   78.541962   29.935585   94.512566
H   91.966072   65.551765   50.379837
H   84.141190   31.636257   61.111538
H   64.837021   17.458532    8.927797
H   80.016159   71.458061   30.880680
H   24.043375   34.389874   61.907379
H   50.127342   96.597191    6.933918
H   23.537704   80.579880   80.577705
H   80.415817   78.075150   93.231270
H    6.279921   74.222343   76.159576
H    5.647378   16.457863   50.469837
H   66.578354   56.812641    6.675146
H   29.784838   73.009323    5.288339
H   44.861057   96.415932   68.399170
H   50.665657   16.859186   44.456978
H   88.571182   16.244844   48.483738
H   69.353531   23.632074   87.448944
H   22.284630   65.043907    1.970656
H   70.126663   74.946075   14.821810
H   41.720917   13.608524   31.497208
H   89.014015   24.765083   84.264931
H   97.767021   91.277138   85.766884
H   13.819214    4.826217   62.941750
H   45.674450   40.305355   50.986652
H   58.498505   75.277649   71.248444
H   34.276310   25.819506   45.296825
H   75.081680   24.349194    2.040533
H    5.389400   10.635194   58.360271
H   78.219620   99.641273   71.186234
H   51.392769   21.759785   63.374100
H   95.748810   27.120897   73.220589
H   29.370190    4.586020   50.566353
H   10.952755   26.307341   36.621716
H   69.421265   91.090805   97.865875
H   40.142483   31.386526    2.261725
H   23.294731   69.956917   90.206718
H   11.296226   12.832644   92.503380
H   27.152422   59.374428   91.374481
H   41.614594   98.520203   59.935989
H   22.526031   88.433441   29.364899
H   32.448982    2.625742    1.597093
H   75.963509   21.372919    8.575635
H   63.363297   71.861641   76.889748
H   23.824791   82.640633   55.701626
H   44.428719   34.236713   81.092529
H   84.584816   87.868652   96.709518
H   43.649357   17.719238   97.894348
H   63.435841   97.164085   67.017845
H   23.199127   57.954247   64.774467
H   72.419411   26.010094   32.635029
H   78.274651   16.907850   95.056061
H    8.983980   27.257732   47.873997
H   38.740013   70.539352   52.611916
H   65.882988   96.692337   27.231852
H    6.475435   78.325073   65.361061
H   87.746193   75.506760   66.283821
H   21.603987   39.947357   29.440731
H   18.223963   67.799164   87.144333
H   25.439486   28.471497   22.623531
H   84.414345   30.493822   47.448921
H   62.058117   29.153101   56.612930
H   65.198830   31.356361   21.680349
H   70.865135   41.048988   95.457603
H    1.925357   29.120035    5.165301
H   46.194618   96.727211    0.742379
H   82.942291   61.433876   89.645470
H   58.414032   79.392731   95.588478
H   63.481621   21.035812   76.913818
H   66.386452   78.803833   29.437431
H   17.140072    8.020685   75.505829
H   35.699665    7.372533   83.294113
H   41.156704   23.255680   35.497673
H   15.976073   54.860249   87.295822
H   68.776985   45.158016   46.507660
H   39.761360   21.254398   90.010216
H   21.568348   29.280415   45.952614
H   30.404119   25.027889   21.774611
H    5.197043   70.053902   21.193306
H   79.190483   10.833802   95.326714
H   44.937984   60.272854   26.998800
H   97.275734   48.835068   73.989883
H   77.091057   86.973900   34.360699
H   91.532448   55.234692   86.622231
H   64.061508   24.509567   65.206841
H   45.541054   87.899323    0.506971
H   84.617149   85.297592    7.534728
H   92.685921   78.897133   96.809814
H    4.647248   11.054352   48.771530
H    0.671622    2.744305   59.909225
H   64.382278    1.724389   84.801262
H   68.766891   86.370857   51.555244
H   90.570091   66.593605   84.399208
H   44.326721   43.270798   71.568062
H   43.406776   12.734984   97.569244
H   46.855114   65.303802   12.454999
H   60.737015   38.701637   44.475208
H   57.448631   55.362141    1.947644
H   61.195564   29.278862   76.865028
H   36.729580   72.287613   46.583378
H   43.155479   60.666176   33.486076
H   42.933769   97.110619   47.826069
H   44.727669   76.247704   69.261009
H   63.153538   67.965134   98.699982
H    7.032826   87.835861   92.841743
H   78.899055   60.019238   51.917942
H   30.588198    9.212599   50.533997
H   72.645142   34.680355    6.132670
H    7.900839   99.398178   77.830605
H   10.598850   51.871944   59.378136
H   61.245964   43.340458   51.722778
H   58.515728   58.604549   79.855881
H   44.965546   37.879288    7.943606
H   15.860155    2.020697    5.423307
H   64.531563   60.044769   75.324509
H   53.209412   87.497002   85.436607
H   47.172405   23.450153   36.202377
H   61.947933   37.883408   37.263653
H    8.485025   17.947010   74.450500
H   59.681877   19.509550    9.077791
H   10.604285   66.857155   62.717274
H   76.208519   98.796211   51.416019
H   23.565823   27.474724   44.870014
H   93.040276   28.417364   37.036392
H   23.004677   11.033242   91.259186
H   80.816895    4.730003   35.982452
H   48.788429   68.269745   57.224731
H   36.204514   80.719864   92.562454
H   72.159019   76.366119   72.483597
H   74.970215   95.608261    2.804733
H   98.560837   47.250328   23.213831
H   36.198490   50.547020   83.728737
H    1.056434    9.128380   63.908398
H   77.545174   23.146318   70.023727
H   89.915794   53.639854   85.312889
H   82.805359   82.465935   43.486343
H   17.694731   30.013271   66.841660
H   69.133865   90.244614    4.565832
H   49.826073   25.079584   74.394325
H   84.540146   91.630737   78.709946
H   97.669365   35.582474   83.573830
H   28.705809    5.826403   97.581314
H   94.072266   64.005318   22.867283
H    8.819283   60.834492   65.674820
H   48.231537   58.686733   64.742813
H   44.189640   33.538795   79.844185
H   48.275948   82.863831   25.592421
H    2.412338   15.715957   56.065262
H   36.431385   60.497681   31.781630
H   87.502701   57.649975   22.064888
H   75.142593   10.196957   30.607609
H    8.956100   83.487083    0.901572
H   31.118223   98.916649   49.110069
H   12.926787   11.399240   81.416054
H    8.800442   37.567493   98.804672
