200
TIME:    0.029, STEP:    29
H    2.987553   63.175259   11.731607
H   26.083633   29.797522   81.331421
H   22.560221   59.902718   34.955315
H   10.730146   74.507545   50.017292
H   17.450514   78.381485   56.692173
H   96.482788   58.541866   71.795464
H    0.302265   55.453842   45.567295
H   98.160385   79.774902   32.561935
H   78.859497   90.669487   52.866760
H   18.288830   77.854485    4.394860
H    4.839094   90.086739   86.293869
H   29.905289   36.390949    2.688504
H    5.995440   80.005241   69.939537
H   14.377213   52.316715   32.098293
H   29.809101   70.320297   43.497753
H   35.450638   34.660103   58.874722
H   74.281372   97.836296   25.676428
H   41.572689   73.023674   47.276840
H   58.005077   37.340549   39.377720
H   89.384964   82.602318   45.650127
H   55.552856   66.225319   35.507336
H   94.726433   40.749260   78.705803
H    1.323781   64.075600   54.199036
H    4.174255   86.193459   92.259354
H   94.075378    4.217695   52.939396
H   18.835756   52.972862   13.925383
H   94.810081   54.562977   40.598206
H   89.667999   61.424992    0.176078
H    2.181746   62.943184   39.573887
H    2.584436   15.111927    5.924504
H   13.636970   42.633976   15.936842
H   35.763016   58.561020   88.408295
H   32.221542    4.445292   70.601860
H    3.410267   63.347717   34.602242
H   58.114094   98.519699   35.824062
H   39.953625   54.732845   77.056946
H   80.208389   78.983131   84.370888
H   43.352058   39.297279   24.654409
H   60.879402   53.956223   39.741474
H   92.106270   40.556171   71.938568
H   80.443283   15.084410   94.520729
H    2.837005   47.531429   46.087635
H   80.500992   92.629044   42.493374
H   37.751328   52.986759   11.201985
H   21.567909   69.857552   36.749550
H   44.029072   19.329855   40.393105
H   75.997940   36.549526   91.552437
H   95.252701   65.553825   55.233047
H   78.920280   36.759319   61.014206
H   69.667572   16.849306   14.639358
H   83.227600   73.166779   36.230850
H   29.204031   32.066265   59.004414
H   46.486919    0.460559    5.167716
H   25.546915   77.730988   78.578537
H   86.130081   81.077507   97.597305
H    8.010525   77.548111   71.738953
H    6.032650   15.947013   51.917973
H   65.103439   53.674328    9.111758
H   32.633415   70.401443    2.023211
H   47.983406   97.173988   70.894783
H   51.102879   19.493073   48.401241
H   86.145607   15.925069   47.449135
H   65.634315   20.835453   92.003464
H   19.013708   64.851303   98.956673
H   67.956520   72.933517    9.301309
H   47.016499    8.363797   29.070602
H   94.056740   27.612688   81.475777
H   98.523018   90.970207   83.094116
H    9.017373    3.001885   64.650467
H   46.451561   37.952393   50.993862
H   58.557728   72.942711   67.637375
H   38.070198   29.368004   46.241821
H   70.797012   22.015285    6.560806
H    0.991284   13.602532   54.430428
H   76.575790   97.455681   77.533928
H   47.980484   26.525963   64.256119
H   96.319412   22.095167   75.130150
H   34.370308    2.127718   55.182671
H    9.926392   20.292583   39.611713
H   71.455452   91.843712    4.268261
H   34.412769   33.667976    4.265593
H   17.358767   72.384552   94.380150
H   11.822926   11.351808   96.453308
H   31.554764   54.959984   86.974457
H   46.421970   97.092667   63.761806
H   18.722616   93.156876   32.175167
H   26.398436    2.344432    1.287603
H   77.086174   26.397362    3.483783
H   59.233639   71.525871   76.398453
H   24.500965   76.589569   57.186840
H   50.087402   33.071304   81.693001
H   85.525177   86.684189   93.763809
H   37.236259   19.241789    1.739148
H   69.489944    2.014207   63.311089
H   19.778345   59.780380   59.151871
H   78.010078   22.991772   38.982208
H   76.443367   21.577211   89.241890
H   12.695213   25.159945   46.595806
H   41.799019   71.891701   52.133495
H   63.535694   94.498505   27.198893
H    0.452264   74.592468   59.003689
H   82.726128   73.464333   67.028488
H   18.805563   44.880905   27.554087
H   11.736965   67.549911   81.783348
H   25.618443   30.245617   18.246674
H   79.069839   37.103584   53.769321
H   55.663044   27.476828   57.241211
H   65.993965   26.173046   26.900486
H   67.434311   42.753071   88.929665
H   97.588974   31.002302    4.504576
H   44.418438   97.900345    0.647397
H   77.521568   58.038586   88.107727
H   60.758755   77.826149   98.524918
H   63.938927   23.946245   80.395111
H   70.891533   73.182266   34.171024
H   22.649372   11.970098   69.415627
H   41.250164    5.471533   81.720322
H   41.841633   16.610840   38.196190
H   10.849149   49.791775   93.967957
H   65.214325   42.463619   41.471630
H   38.352364   20.357296   94.433929
H   27.393333   32.478466   41.981571
H   27.149385   30.721554   17.769836
H    7.186041   74.912262   27.105066
H   83.227821   14.172158   99.791725
H   39.992077   56.578873   29.605392
H    0.631281   48.204727   79.203583
H   80.043976   85.915092   33.220524
H   89.871109   60.121376   89.698746
H   57.518120   25.149435   62.906921
H   40.091492   92.719574   95.347862
H   89.798920   83.958633    4.351161
H   93.126747   72.329025   95.805595
H   11.266983    7.593014   47.109676
H   94.002571    5.185282   66.112724
H   67.977898    1.897649   86.790131
H   68.543388   86.026848   44.834702
H   89.418587   70.808235   86.532272
H   40.798050   41.382866   71.599991
H   43.333649   19.209814    1.320562
H   40.171650   69.274330    8.094242
H   66.951843   34.599789   41.328140
H   61.788403   52.877342    6.501019
H   67.381554   34.165691   74.627937
H   30.383945   76.764885   42.168934
H   38.209057   58.339993   39.951702
H   39.740868   97.701820   48.792694
H   48.413925   81.272919   70.035545
H   59.544529   73.601120    0.042043
H    2.700716   86.314598   97.881409
H   83.657509   57.726528   52.937096
H   24.905605   12.948036   54.764591
H   66.373665   39.728230   10.872044
H    4.332128   96.299004   81.166672
H    5.245557   48.306709   56.935566
H   57.238358   43.005718   47.569431
H   57.102612   54.556259   78.257370
H   43.046200   40.045311    4.780767
H   22.038931    2.529373   10.429630
H   66.044586   65.553040   70.143768
H   51.883327   92.981583   89.026047
H   53.510830   24.149759   37.371906
H   56.136852   43.769161   37.319786
H    3.529716   13.981051   80.226562
H   60.974487   14.928765    7.751321
H    8.278359   71.152122   63.455246
H   78.533157    0.979567   49.984879
H   23.447891   21.332508   39.287586
H   91.205902   28.856388   37.355167
H   16.843922   12.052010   92.779419
H   83.395935    3.124540   35.993782
H   53.452126   73.283630   56.810169
H   33.596119   86.520645   96.360977
H   73.819328   79.602280   69.356613
H   81.244781   96.623810    9.151965
H   94.392555   46.521111   23.084312
H   37.585342   46.329815   78.081421
H   99.859917    8.999634   62.182171
H   80.997627   26.284632   71.602669
H   96.337646   52.191719   83.408478
H   85.270073   77.628174   46.625172
H   14.971801   29.848476   61.913265
H   75.348694   90.384689    1.893926
H   46.886543   24.829559   69.427818
H   82.794350   97.486107   79.266129
H   94.843132   34.443329   82.898170
H   24.005291    8.138871   94.590286
H    0.557968   58.287445   18.143591
H   12.728785   60.232475   64.131927
H   45.776608   59.421101   63.037189
H   37.740494   38.005253   80.808235
H   49.382648   79.195084   27.311953
H   99.413757   12.504258   52.972782
H   38.790012   55.109402   29.060711
H   92.135498   63.679924   22.506487
H   74.813004    9.865693   32.457237
H    8.058740   79.805977   96.344986
H   35.041828    1.599473   52.917347
H   14.727043   11.021500   87.453728
H   10.208537   42.141068    0.680361
