100
TIME:    0.886, STEP:   886
H   57.405678   40.770546   98.334854
H   76.624519   52.783634   33.888790
H   94.987152   37.645977   12.936775
H   81.625320   96.145958   91.598381
H   87.235229   43.774330   41.681572
H   14.277359    0.249360   66.489983
H    6.535936   21.164145   59.739124
H   50.248444   65.251144   26.844299
H   31.848427    1.108008   44.316864
H   50.627571   29.105774   42.385704
H   17.841461    1.892809   54.404869
H   22.023647   68.101326   29.862108
H   86.903809    8.103159   37.067795
H   11.212210    2.345526   24.664906
H   91.278023   90.883575    8.182453
H   65.900055   34.241062   59.494614
H   52.833458   40.589584   54.023232
H   20.077545   51.614532   68.830368
H   59.060730   15.521167   10.041536
H   68.666176   86.955994   76.632744
H   11.700043   68.014069   33.196838
H   47.303333   45.269356   43.814602
H   73.914650   87.416435    6.999876
H   36.722549   47.307926   41.272980
H   97.896233   15.908039   43.099670
H   42.596439    1.210434    6.128743
H   85.678192    5.646273   17.547857
H   57.782051   97.794678   96.059280
H   30.436386   29.476549   15.290749
H   34.965771   68.911362   53.822872
H   50.954472    1.495079   39.301079
H   21.699591   28.033241   17.242592
H   32.766102    3.658717   77.614830
H   15.537753   92.526192   34.424736
H   58.748909   91.945229   78.679352
H   49.589447   54.084911   17.595732
H   64.777000   72.088722   78.278694
H   27.371063   42.737865   84.963966
H   10.888390   61.594505   57.208763
H   79.741737   29.238619    7.742315
H   74.692490   86.582283   63.218052
H   51.992546   51.623207   44.425831
H   18.872473   68.813019   65.468666
H   22.782061   27.619474   67.361580
H   79.801109   96.934891   31.925318
H   66.635796   79.859917   86.792747
H   45.435413   73.536453   35.194038
H   56.286732    4.505640   23.398558
H   90.929802   59.069717    9.130399
H   44.472042   44.234882   21.697136
H   43.477024   84.105736   62.758717
H   48.190422   81.525116   15.897072
H   27.258287   27.146057   51.413177
H   56.172558   92.747749   70.913406
H   70.226242   36.176182    7.924406
H   94.674820   11.600801   62.465271
H   52.419243   63.981819   40.253487
H   60.085144   93.215630   90.733475
H   60.152756   76.204010   43.464924
H    0.552833   95.887970   38.409630
H   15.590033   37.367882   45.315643
H   67.465271   19.698593   55.267632
H   34.329506   46.735268   72.775002
H    3.878794   46.614105    3.083487
H   67.490929   90.080681   78.073128
H   46.916878   98.227486   98.573097
H   16.483171   78.993011    9.838043
H   19.163887   68.208359    8.558524
H    1.058996   86.124023    4.663122
H   48.333839   92.706200   99.867462
H   93.897011   35.118427   51.521244
H    0.912911   22.121071   21.489973
H   49.223221   74.480293   39.030582
H   10.689853   93.311554   50.550987
H    4.890301   29.904371   68.562675
H   46.605770   64.358421   36.313213
H   47.398350   49.753532    6.711555
H   73.606216   92.787270   63.372272
H    4.019536   50.907078   27.567673
H   56.074448   60.702332   44.591431
H   28.220226   38.447735   32.942196
H    7.799980   50.013809   12.690884
H   73.855644   22.045061   14.286873
H   11.117939   87.977760   82.503761
H    9.188284   93.463593   61.864693
H   30.900234   41.599117    3.309691
H   26.328665   38.933510   65.790985
H   70.218018   34.358528   86.531166
H   74.069527   44.840721   20.951385
H   88.002457   72.827225   55.886761
H   60.281315   21.273638   52.172436
H   43.841984   62.141685   50.404030
H   42.130943   54.177048   87.458000
H   32.863091   66.976555   86.556877
H   41.274296   70.367859   36.445000
H   67.101547   60.743767   21.686104
H   92.276138   18.525923   86.234222
H   10.118243   23.781433   41.860092
H   66.505058   40.669491   70.834602
H   94.265030   55.946972   12.351328
