100
TIME:    7.587, STEP:  7587
H    4.244719   26.256596   92.199905
H   90.942734   15.991536   56.490925
H   10.184534   19.742989   34.280331
H   82.750061   20.066246   24.292984
H   27.212942   80.888847   59.990341
H   10.362620   92.988533   30.111820
H   55.334270   73.649002   83.766434
H   23.563057   44.973347   11.580079
H   67.124931   56.834290   22.511864
H   67.531807   25.323076    4.779875
H   94.530777   71.522034    8.931620
H   66.268646    3.987819   52.877892
H   59.951927    2.755377   71.130867
H   79.418526   81.690620   34.614338
H   72.757698   92.324600   86.043243
H   96.465714   48.142273    3.253312
H   14.005789   83.791794   64.062897
H   63.312405   25.655411   36.522690
H   63.430988   96.635803   63.072689
H   88.110489   44.693745   32.890816
H   14.053375    0.906746   51.317539
H   89.753418   54.155838   73.175156
H   84.444817   32.917641   15.276872
H   14.115877   27.590792   43.597389
H   58.229439   84.473022   92.571632
H   11.833996    2.438374   76.912560
H    7.843046   27.093790   50.507862
H   92.372948   10.575202   17.557772
H   76.142738   37.443684   98.531303
H   91.912994    3.061037   86.533623
H   14.651040    2.397127    9.119713
H   44.805019   42.889637   96.897499
H    4.774437   13.381472   81.293831
H   98.670006   78.419472   52.122665
H   92.136070   85.227684   86.650909
H   32.162235   79.675034   95.573586
H    7.491374   26.683649    6.291280
H   50.406647   20.105412   57.833755
H   24.821987   16.109159    9.075886
H   48.582481    1.913281   34.963676
H   16.733885   16.512190   21.090910
H   60.822914   71.355576   67.288383
H   76.580963    9.000036   49.489819
H   94.888763   39.989952   22.552330
H   98.540092   32.547970    5.349792
H   80.190178    7.626052   13.984285
H    1.008713   37.445564   98.291206
H   56.650692   73.513626   38.018093
H   86.806221    4.095540   41.825821
H   85.030518   46.212429   53.049988
H   42.980633   37.167999   33.404190
H   73.856659   59.722301   75.997437
H   66.250725   66.000732   62.229256
H    0.997620   83.415344   66.609695
H   36.707108   23.493046   64.881424
H    3.045358    4.552936   34.347412
H   77.234146   70.626701   77.574242
H   61.111984   60.388908   18.131231
H   88.643730   59.346607   29.032070
H   58.353844   10.949506   47.818260
H   38.294811   25.741375   22.854111
H   29.640480   57.323349   52.067581
H   89.142021   89.559479   13.207092
H   64.026848   83.092667   21.151363
H   33.463280   54.883984    2.112854
H   35.265900   65.101097   94.786499
H   78.849091   10.665501   33.363323
H   56.279793   51.446281   28.905075
H   35.037346    4.632889   84.389374
H   84.112785   29.719881   85.751694
H   81.110573   79.182541   71.140541
H   48.496014   99.681053   12.170711
H   12.304327   43.028057   67.221497
H   63.185261   69.237122   52.359528
H   27.944094   39.486645   76.553177
H    5.016255   93.828148   85.420387
H   55.844440   69.127266   25.297590
H   88.431381   54.626110   33.441357
H   25.337774   31.233311    2.327259
H   27.451115   95.719139   67.294380
H   59.343040    7.773355   33.447525
H   10.619418   93.673462   52.275234
H   97.768990   33.999546   52.491325
H   72.121941   61.395260   70.461235
H   82.906067   74.307762   12.278359
H   76.677719   87.737442   68.647491
H   73.873360   51.715767   85.320732
H   78.048851   97.954346   16.912544
H   13.135209   71.740303   66.138924
H   95.545685   97.124649   95.434677
H   34.514027   83.107414   93.685349
H   39.660069   66.094269   78.087837
H   71.794846   55.168186    5.718936
H   80.520058   73.467369   38.378490
H   25.417912   70.133133   90.428223
H   20.576721   96.130249   75.570427
H   60.381889    3.082220    0.853064
H   23.632654   61.862492   26.572851
H   47.285789   69.564705    9.545887
H   10.469841   83.938675   66.861374
