100
TIME:    9.909, STEP:  9909
H   47.216461   13.319486   90.074051
H   26.813507   41.818905    2.898440
H   50.097454   86.797401    7.022905
H   83.139801   24.400229   97.015884
H    6.406141   67.007034   97.033012
H   74.360962   90.472939   60.068077
H   33.639683   30.441370   65.349884
H   41.058441   45.855816   98.381599
H   10.045738   33.582092   76.351997
H    4.106585   58.663563   95.698158
H   78.543915   64.951218   85.261604
H   77.643150   20.376923   87.595940
H   11.885649   62.209038   40.378677
H   64.447083   74.533577   11.318729
H    0.960843   84.912109   74.375023
H    3.102633   45.051620   10.507012
H   27.284279   37.373817   75.443710
H   12.965400   12.666857   56.030640
H   99.605667   94.046829   85.416779
H   25.550396   95.384247   90.983421
H   76.262115   69.746590   88.294785
H   12.365829   57.238327   75.435410
H   53.442398   14.039995   48.854179
H   98.368561   55.368622   71.146759
H   75.181992    0.326302    9.715366
H    0.882549   33.986191   58.401577
H    7.614445   30.570913   96.573227
H   96.449440   18.958332   94.310173
H   26.632915   48.113804   88.768784
H   80.948433   45.591873   71.125740
H    6.036174   10.615391   25.410553
H   91.417740   78.735275   81.938332
H   68.335243   43.492447   90.477928
H   96.780365   65.621971   54.300682
H   34.348259    9.419594   27.924643
H   34.009312   61.551044   88.274818
H   30.201359   41.646736   89.255875
H   54.433140   77.616936   21.692001
H   26.809460   65.516624   84.056969
H   29.876732   84.535416   17.653765
H   58.041351   96.185745   75.796227
H   65.137154   80.466415   85.822258
H   96.563995   22.931015   17.210484
H   46.629307   78.971413   49.581913
H   97.097900   40.906376    4.038377
H   50.223778   51.909832   23.417765
H   19.162785   63.728046   20.588572
H   56.792416   97.429489   81.689957
H   54.678101   11.788488   49.189667
H   33.772621   81.563560   90.695625
H   46.457035   13.266457   52.299194
H   86.706146   44.257652   23.571692
H   14.405231   79.464478   27.372719
H   47.219368   45.531067   69.073128
H   51.825752   26.981939   84.616440
H    5.937407    2.110417   55.301041
H   24.439835    3.626181   98.415703
H   88.211624   41.104576   58.322289
H   71.783134   57.463295   50.771641
H    5.127947   89.426529   81.775063
H   84.771515   17.757151   41.819492
H   47.228142   35.710495   47.005348
H   46.808735   31.152952   54.000229
H   23.473007   95.741501   58.113029
H   25.627438   69.428291   18.350470
H   92.624634   49.667809   32.082272
H   92.550423   90.942230   45.469128
H   95.883202   84.243355   39.910110
H   50.766403   37.788788   38.757946
H   31.271606   46.346790   80.826797
H    7.367706   21.187298   43.291847
H   57.284187   22.583397   82.371002
H   60.907181   28.170599    7.680683
H   12.076176   22.280056   14.394632
H   39.796623   42.905727   52.608601
H   59.915680   42.646992   29.179680
H   66.731392   68.152023   66.483513
H   97.514870    2.804598   61.688637
H   36.685654   24.412861   28.242632
H   13.579152   69.228981   67.252052
H    4.800447   31.795511   72.230873
H   84.858971    8.740693   58.015953
H   44.639740   72.831825   73.626633
H   31.872807   60.093948   58.382484
H   69.846039   29.052650   87.187943
H   23.234394   73.029610   29.894382
H   28.954622   82.886818   96.042442
H   15.391586   12.149512   92.842453
H   61.324711   42.454597   47.147957
H   90.250061    1.591347   78.438400
H   29.540426    8.487966   42.722069
H   11.464556   40.730621   22.332407
H   20.639362   24.833860   85.282768
H    1.292614   14.064919    0.534003
H   85.269501   62.142792   43.783180
H   12.364409    4.437251   55.636215
H   76.072624   36.334778   67.312347
H   19.150644   76.757065   79.950829
H   36.670982   79.591652   15.054508
H   54.696442   24.354542   43.174847
