100
TIME:    4.719, STEP:  4719
H   98.196205   89.265053   94.825638
H   70.148109   60.581047   75.654602
H   60.869995   13.407859   67.952782
H   82.268677   38.228264   81.499031
H   52.903397   51.006165   37.752350
H   54.846210   96.095650   46.084827
H    5.648246   79.987457   59.484951
H   48.982201   96.856018   74.911522
H   37.625908   32.580872    3.042002
H   45.881935   84.141212   92.479706
H   61.305145   56.121708   85.191345
H   75.730690   60.229713   57.025322
H   42.937912   76.222771   56.118408
H   21.423950   90.530586   16.357599
H   37.901665   48.507111   23.933804
H   11.783009   98.987930   41.323181
H   44.633278   94.096497    2.977536
H    1.980700   65.205544   35.940868
H   18.768414   76.322037   11.978342
H   65.376427    5.602774   37.624062
H   84.244576   86.425873   29.162823
H   14.795471   50.348526   17.411804
H   22.738579   56.242897   97.333191
H   80.595245   93.278656   56.599884
H   60.805450   11.918694   71.390724
H   25.034456   87.150650   46.664547
H   55.154922   46.314518   93.598732
H   34.366512   76.706680   22.756365
H   13.781398   77.236687   34.101753
H   81.941010   74.044334   58.535439
H    1.776421   45.217144   36.026680
H   63.717754   22.131874   62.402580
H    2.756668   23.217600   22.921743
H   77.490280   41.254486   72.947365
H   63.469757    2.199778   12.083214
H   82.852448   55.041111    4.591318
H   32.412819   31.716751   80.304123
H   68.945366   72.594597   55.447208
H   45.883045   78.598808   87.006363
H   18.716730   70.407021    9.315031
H   12.741676   18.104681   53.523296
H    7.503864   23.648714   24.502970
H   51.888348   91.798386   42.332008
H   78.019073   91.853699   42.134254
H   47.317028   45.702850   59.928242
H   17.206135   52.924519    2.331101
H   78.601852   81.472801   70.764778
H   56.491436   43.974136   60.562904
H    2.973599   41.621723   56.232887
H   24.849232    2.557547   53.610245
H   43.184589   14.054428    3.172617
H   34.466301   25.851072   64.269806
H    6.757625   49.371094   28.796465
H   67.407890   30.209412   40.052147
H   65.061188   72.151375   40.484783
H   99.470749    7.569793   31.980911
H   95.416626   53.382027    4.803570
H   74.669083   31.236670   92.003891
H   62.453011   38.158890   49.203384
H   47.612751   90.505722   29.390999
H   57.378937   59.115086   46.464920
H   31.428156   84.018295   81.834793
H   94.433067   85.266769    9.874474
H   67.086037   67.469559   99.016373
H   19.626890   83.945618   35.029392
H   11.449902    7.677467   25.207434
H    8.954027   11.511462   94.894882
H   54.392189   87.421463   91.798088
H   92.095810   10.709076   64.266693
H   25.993612   85.494629   91.796265
H   72.182808   74.319107    5.539072
H   84.863861   94.910355    2.124415
H   99.303177   84.885384   40.754059
H   26.324802   50.752560   22.766293
H   89.693367   35.367283   59.130337
H   37.218613   10.015936   78.400101
H   95.409317   17.534431   74.506584
H   53.687527   42.156803   75.053368
H   87.806328   39.657536   70.335854
H   68.096497   51.947720   14.375059
H    3.215507   78.101883   62.032406
H   95.396965   75.046219   92.177269
H   16.361300   86.037659   79.357864
H   74.808792   15.973940   32.409180
H   22.553244   53.709671   90.298363
H   42.684948   82.391838   69.484863
H   82.326057   60.243179   48.563705
H   31.914175   27.479700   46.667664
H   53.616562   31.425280   89.595467
H   49.116039   15.122238   92.910721
H   17.143639   28.244640   33.118450
H   27.457109   50.392975   23.445082
H   87.950645   69.113609   83.932053
H    3.336412   99.474396   44.996189
H   75.001945   27.030258   24.523582
H   83.691620    9.383770   23.706673
H   88.030571   38.494259   65.794922
H   24.187407   56.417145   80.521507
H   83.910919   57.192051   49.771935
H   32.326168   57.534069   43.144283
