100
TIME:    3.574, STEP:  3574
H   75.627350   94.267395   95.873917
H    1.852274   98.520615    3.446831
H   41.188560   31.031353   81.388222
H   82.076492   85.400810   44.260372
H   63.159058   59.229366   68.798874
H   72.601570   97.336113   32.690971
H   65.655296    2.670264   69.944389
H   38.976944   97.799026   80.041405
H   65.772194   42.667923   75.117195
H   77.173058   67.700706   47.645126
H   67.810257   10.050137   95.483925
H   19.430298    2.836952   38.527367
H   15.920600   45.475494   69.901756
H   78.117546   94.059792   29.223064
H   23.974510   50.783066   78.974159
H   57.821838   99.133842   36.368507
H   36.707405   18.363621   98.743668
H   77.515099   20.897224   75.639343
H    0.934988   28.286905   51.653309
H   96.230766   29.918474   59.667168
H   52.190491    0.413607   60.235954
H    5.023209   48.828522   14.919128
H   38.025978   65.555107   30.094852
H   86.978157   79.546204   41.637478
H    1.758103    2.722389   62.934608
H   30.269804   21.116720   54.179245
H   53.889469   93.909622   70.886024
H   30.978426   23.261932   84.909172
H   88.883652   73.353287   88.227882
H   38.035599    2.382968   67.511353
H   56.716244   42.542881   26.615440
H   91.421852   53.763687   68.400978
H   22.104864    6.991808   19.771101
H   29.111954   46.186928   21.183887
H   91.930527   88.753014   42.359413
H   83.303795   65.242828    8.350041
H   22.592445   73.647934   90.082634
H   16.272873   93.542702   74.648048
H   94.211975    3.547220   97.965477
H   26.562916   77.597763   19.228758
H   90.994614   78.815536   26.547590
H   10.410423   72.262634   70.710861
H   42.025791   84.932159   59.626369
H   51.134705   72.670197   30.181036
H   46.637280   90.880127   61.947689
H   31.978130   31.085377   97.680092
H   69.656540   19.204144   59.771965
H   56.430286   32.181000   89.716820
H   69.499252   36.450653    1.904642
H    0.834912   85.137367   33.694012
H   43.271946   24.597088   91.100510
H   78.822678   32.098419   39.435886
H   83.012032   42.731995   95.296700
H   93.929344   48.894981   89.527863
H   56.226212   71.801697   30.745089
H   98.038101    8.774923   70.959412
H   22.828272   86.420280   95.904488
H   59.928703   39.367706   21.497543
H   72.149818   89.778488   37.105137
H   23.172066    2.496611   61.957527
H   85.151070   12.365323   35.738499
H   72.066368   94.675797   33.642372
H   16.698740   63.399834   88.390556
H   88.459709   61.236176   30.106297
H   74.181938   75.395149   28.400507
H   81.788765   64.598701   57.506577
H    0.819330   71.923157   39.615643
H   33.485268   21.938311   37.060467
H   35.030067   92.981491   36.077724
H    2.796104   27.904013   94.207306
H    8.541124   52.225044   19.275696
H   79.274094   32.911163   18.292877
H   73.959885   41.520977   70.112785
H   51.535885   23.209217   90.799583
H   34.488689   33.733715   72.331337
H   10.147286   36.632446   55.443752
H   91.450905   16.775703   54.257328
H   99.893341   17.025019   11.817621
H   32.898941   43.020763   57.559921
H   24.249763   14.305557   13.017843
H   80.816208   66.256332   93.598831
H    9.485135   67.568497   87.921509
H   43.925930   66.913879   70.305756
H   96.035965   17.993828   36.987000
H   78.304947   25.328472    1.293301
H   69.038757   40.333473   89.972504
H    5.854116   43.494011   93.965332
H   13.486307   19.151062   58.574364
H   29.855183   95.178062   98.960091
H   50.349407   62.233635   51.977997
H   70.285400   66.415764    8.938149
H   42.734047   64.289604    1.626881
H   14.554652   34.754974   95.387352
H   92.668098   30.021778   67.793846
H   94.796944   29.592464   98.214531
H   89.119308   54.597664   82.847069
H   78.915192   72.785179   31.645872
H   19.985556   46.668152   98.848915
H   38.456200   52.256405   45.677429
H   61.204395   86.918892   53.445618
