200
TIME:    0.259, STEP:   259
H   10.054993   62.411938   15.664465
H   28.133633   33.155544   90.668503
H   17.739454   69.969780   46.284050
H   18.482969   77.195839   44.002850
H   15.008415   84.210800   53.385326
H   89.000488   52.299305   64.986992
H    3.634504   55.290649   50.019123
H    3.314406   89.706848   24.397911
H   88.200089   87.221382   47.255913
H   10.192364   74.632744   95.323021
H   12.855937   95.000069   93.562088
H   30.856369   42.529980   13.647596
H   11.640506   87.638451   60.512962
H    3.505592   53.287098   43.181362
H   18.704536   72.090851   42.931843
H   28.746574   25.183517   53.913136
H   85.101227    8.608362   14.509569
H   36.110996   84.080421   43.182106
H   65.657585   29.014051   42.763531
H   90.116699   79.443748   36.734188
H   58.313095   77.706718   24.969997
H   89.606041   49.540611   69.842506
H   94.436249   62.403313   48.680313
H    9.010673   88.232407   91.526505
H    4.072299   13.468135   44.732380
H   18.645365   63.179428    6.329023
H   99.263664   59.177998   49.845795
H   94.946320   70.913223    0.781265
H   11.868836   55.952217   38.227108
H   92.190834   21.273331   97.968658
H   13.336686   52.243046   16.218042
H   31.580544   63.951645   94.070908
H   26.664215    9.394376   73.411232
H   95.797722   63.598648   38.622398
H   47.076649   89.015915   34.074566
H   32.440617   49.488743   79.694351
H   86.809799   74.018913   86.097572
H   31.975069   45.246796   14.313166
H   52.367058   45.720253   44.853970
H   89.900536   39.610355   62.954193
H   80.509964    4.336249    2.154932
H   14.285021   42.708469   39.267757
H   76.359756   87.345459   51.033794
H   37.238937   64.156700   19.427864
H   29.426167   76.874840   45.049568
H   40.792416   13.344026   42.894516
H   80.332199   25.281330   96.595619
H   89.653259   65.550316   46.964615
H   87.815163   28.031139   61.180031
H   61.437469   17.887247    4.908587
H   77.756256   70.255630   27.115746
H   20.411802   36.025005   63.950207
H   52.689121   93.878494    8.176795
H   22.123816   82.584656   81.984528
H   76.394669   75.962379   90.158875
H    5.062088   71.881989   79.270386
H    5.376260   16.817360   49.450779
H   67.616257   59.021084    4.960514
H   27.780243   74.844498    7.586022
H   42.663849   95.882484   66.642998
H   50.357983   15.005711   41.681385
H   90.278069   16.469893   49.211792
H   71.970757   25.600067   84.243912
H   24.586390   65.179443    4.091716
H   71.653801   76.362320   18.706543
H   37.994396   17.299290   33.204819
H   85.465431   22.761213   86.227669
H   97.235023   91.493126   87.647720
H   17.198318    6.110005   61.739319
H   45.127594   41.961143   50.981579
H   58.456829   76.920753   73.789566
H   31.606508   23.322414   44.631828
H   78.096817   25.991573   98.859535
H    8.484354    8.547067   61.125717
H   79.376389    1.179146   66.719337
H   53.794006   18.405807   62.753315
H   95.347275   30.657522   71.876823
H   25.851503    6.315918   47.317833
H   11.675011   30.539948   34.517643
H   67.989799   90.560982   93.360565
H   44.174503   29.780930    0.851596
H   27.471891   68.248581   87.269859
H   10.925585   13.874715   89.723801
H   24.054478   62.480888   94.470795
H   38.231625   99.524765   57.243748
H   25.202509   85.109543   27.387302
H   36.706776    2.823701    1.814881
H   75.173485   17.837200   12.158828
H   66.269066   72.097923   77.235474
H   23.348965   86.898788   54.656475
H   40.446346   35.056816   80.669975
H   83.923080   88.702164   98.782425
H   48.162277   16.647814   95.188698
H   59.175873   93.751038   69.626373
H   25.606344   56.669189   68.731110
H   68.485237   28.134098   28.168339
H   79.563332   13.622004   99.147514
H    6.372372   28.733953   48.773464
H   36.587379   69.587700   52.948582
H   67.534790   98.236145   27.255045
H   10.713947   80.951721   69.834480
H   91.278831   76.944023   65.759796
H   23.573248   36.475601   30.768370
H   22.788887   67.974564   90.916878
H   25.313553   27.223042   25.703537
H   88.175293   25.842648   43.001232
H   66.558350   30.332701   56.170807
H   64.639290   35.003880   18.006920
H   73.279419   39.849819    0.051338
H    4.977081   27.795477    5.630255
H   47.444523   95.901672    0.809219
H   86.756874   63.823154   90.727585
H   56.764042   80.495140   93.522095
H   63.159813   18.987730   74.464020
H   63.216209   82.759750   26.106466
H   13.263092    5.241468   79.791527
H   31.793758    8.710249   84.401596
H   40.674717   27.931679   33.598717
H   19.583908   58.426952   82.600616
H   71.284042   47.054073   50.051533
H   40.752876   21.885693   86.897232
H   17.469284   27.029934   48.747051
H   32.694466   21.021236   24.592785
H    3.797375   66.635056   17.033178
H   76.347847    8.481669   92.184738
H   48.418438   62.872322   25.164532
H   94.914360   49.278641   70.320984
H   75.013077   87.718987   35.163044
H   92.701538   51.795914   84.457275
H   68.666115   24.059290   66.825302
H   49.375931   84.507294    4.137440
H   80.970718   86.239822    9.775052
H   92.375710   83.519135   97.516487
H   99.988914   13.490108   49.940983
H    5.364699    1.026576   55.543800
H   61.852028    1.602466   83.401688
H   68.924171   86.612938   56.284515
H   91.380409   63.627708   82.898163
H   46.809860   44.599342   71.545593
H   43.458237    8.178667   94.929550
H   51.558292   62.509922   15.523680
H   56.363617   41.588123   46.689812
H   54.394718   57.110703   98.743385
H   56.842461   25.839903   78.439278
H   41.195026   69.136940   49.689838
H   46.636295   62.303120   28.936192
H   45.180626   96.694588   47.145851
H   42.133636   72.711441   68.715965
H   65.693207   63.999065   97.755577
H   10.067636   88.882233   89.285912
H   75.550514   61.632626   51.200760
H   34.587177    6.583982   47.556911
H   77.058403   31.128147    2.797575
H   10.412154    1.578860   75.483002
H   14.365959   54.380814   61.096981
H   64.066132   43.576015   54.645504
H   59.510143   61.453346   80.980759
H   46.316196   36.355049   10.169264
H   11.512216    1.662740    1.900331
H   63.466660   56.168579   78.970215
H   54.142582   83.637482   82.910706
H   42.712032   22.957838   35.379375
H   66.037209   33.741581   37.224152
H   11.972093   20.737823   70.385864
H   58.772263   22.733065   10.011233
H   12.241048   63.834747   62.197960
H   74.572662   97.259651   52.423119
H   23.648811   31.797024   48.798389
H   94.331131   28.108421   36.812069
H   27.340023   10.316332   90.189392
H   79.002014    5.859773   35.974480
H   45.506569   64.741455   57.516460
H   38.040051   76.637833   89.889420
H   70.990654   74.088821   74.684067
H   70.554779   94.893616   98.338043
H    1.493990   47.763481   23.304974
H   35.222557   53.514683   87.702774
H    1.898394    9.218979   65.123154
H   75.115669   20.937876   68.912621
H   85.396713   54.658913   86.653030
H   81.070930   85.870285   41.277538
H   19.610901   30.129238   70.309792
H   64.760468   90.146042    6.446079
H   51.894630   25.255527   77.889275
H   85.768669   87.510292   78.318558
H   99.658195   36.384094   84.049294
H   32.013580    4.199108   99.686111
H   89.508247   68.029366   26.191362
H    6.068151   61.258133   66.760559
H   49.959080   58.169956   65.943069
H   48.727928   30.395733   79.165779
H   47.497158   85.445541   24.382380
H    4.522509   17.976042   58.241451
H   34.771610   64.289406   33.696190
H   84.242584   53.406677   21.754133
H   75.374527   10.430068   29.306063
H    9.587575   86.077492    4.108075
H   28.357307   97.028564   46.430874
H   11.659941   11.665058   77.167320
H    7.809569   34.349052   97.484825
