100
TIME:    5.546, STEP:  5546
H   42.268715   13.425471   94.068497
H   47.307686    5.392323   27.798157
H   75.090240   72.905548   58.245014
H   82.407486    4.154335   36.167641
H   45.496033   17.293779   15.330652
H   42.018978   95.199699   27.985014
H   62.302685   35.830318   24.157503
H   83.981628   68.400497   98.977898
H   17.296669   53.068130   50.986694
H   23.282492   96.015709   24.864790
H   84.379623   89.398056    5.531067
H   44.166557    1.683134   98.159233
H   90.165207   26.213234   73.943291
H   80.476295   87.981544   79.293419
H   47.959023   74.636490   84.181488
H   78.530914   26.655716   72.674530
H   78.130745   48.794758   78.262604
H   19.665228   24.969063    7.273180
H   31.649277   11.013545   55.545506
H   43.097160   88.038124   93.930122
H   35.169212    4.094841    6.716743
H   94.080765   51.446381   46.985138
H   11.696322   49.516960   73.672531
H    3.754252    3.174532   95.178635
H   31.226555   46.334801   77.498329
H   21.264524   62.707275   68.896088
H   83.841370   11.935658   10.006723
H   64.585365   15.308220   50.095467
H   31.763695   52.268345   95.010468
H   13.651876   53.576286   24.279438
H   34.324913   19.376358   70.597069
H   15.934881   99.284119   85.843071
H   61.011143   62.710518   97.424431
H   12.432912   65.464928   38.106255
H   42.913376   39.685104   62.439407
H   54.741764   19.815208    1.990101
H   11.732915    1.427985   45.468365
H   34.765842   57.461666   13.808020
H   10.972758   60.578850    6.863955
H   40.822186   92.985100   74.382896
H   56.221695   46.478546   73.007057
H   33.177605   60.766846   63.350620
H   59.011784   96.757660    2.068015
H   25.213116    5.732314   22.994749
H   75.580666   13.076236   30.697065
H    6.535011   68.698288    5.692412
H   85.062790   26.448723   78.702141
H   56.535603   52.491974   11.732932
H   27.145493   73.129456   23.241302
H   42.194073   15.145018   95.770432
H   43.121494   34.213364   11.890782
H   74.657875   49.112453    9.976509
H   23.912388   54.166321   80.766563
H   48.257408   16.713371   76.546349
H   99.213707   44.630131   47.519886
H    0.503248    6.699869    3.827881
H   47.843369   29.519463   83.458138
H   13.089166   53.136543   70.702988
H   27.678076   73.101128   85.713921
H   93.040543   54.073002    5.869148
H    9.546249   20.657696   81.985893
H    2.079340   76.320694   44.416100
H   50.578991   28.834341   53.164581
H   23.873055   71.974548   76.567139
H   52.454079   17.893944   12.043757
H   60.646416   66.564995   74.106133
H   42.602875   40.101864   34.823868
H   97.265450   34.719578   31.333471
H   33.314129   51.286140   12.396358
H   42.746490   27.089432   90.054840
H   45.922630   18.050903   95.619087
H   16.674355   67.463989   62.675232
H   45.382111   43.977615   19.547798
H    8.121868   98.413170   73.629173
H   29.566652   36.547161   21.822624
H   56.771782   63.020813   22.754385
H   70.496574   45.856014   89.132027
H   92.541489   88.081169   20.724009
H   27.464054   37.228374   79.560356
H   27.542194    6.901900   43.128326
H   19.398386   86.657578   11.460704
H   57.453407   80.437469   23.018038
H   68.672874   99.868103   58.117496
H   31.706190   86.742111   56.874775
H   82.284691    1.978417   10.129854
H   23.649158   12.767142   26.914429
H   37.559532    0.113396   87.998138
H   45.223930   61.278118   38.074341
H   70.778427   85.380119   82.831673
H   75.998260   81.098557   22.474035
H   50.987846   72.898560   50.583172
H   88.646736   12.591704   39.199928
H   40.962677   93.926704   47.885273
H   83.267159   49.642529    0.757473
H   60.704597   52.953457   43.526585
H   51.998459   76.726349   80.990707
H   22.386900   85.954384   18.233841
H   27.222281   63.458557   67.284157
H   44.514343   60.756924   80.501625
H   83.694305   36.315189   63.477909
