100
TIME:    3.312, STEP:  3312
H   93.345612   18.293938   96.113785
H    9.140558   84.316422   86.919998
H   36.685036   12.182712   84.462532
H   82.032516   96.194878   58.622478
H   65.505768   38.228909   75.902969
H   76.663338   97.619957    6.744030
H   79.387749   84.979729   49.455650
H   59.569626   75.131485    4.096443
H   72.212654   67.858078   91.608131
H   84.333122   63.938774   37.384766
H   92.180862   99.508255   20.721212
H   29.430801   89.704269   57.177116
H   32.586403   61.326782   95.943443
H   91.090416   94.867348    9.284023
H   20.787262   74.186203   91.567238
H   68.356049   22.049591   58.116554
H   57.775826    1.034731   74.892776
H   71.918175   33.638222   84.722351
H   96.853508   17.294947   37.850895
H    3.289948   35.481792   41.828972
H   67.737946   26.497215   67.346985
H   79.905014   48.480713   37.230865
H   41.524055   67.685936   37.590988
H   11.320862   76.403931   61.096783
H   11.128425   23.500969   60.999672
H   31.472143   28.923429   78.736946
H   76.481949    4.800224   65.688881
H   53.084324   11.032654   76.249931
H   83.186783   49.582352    0.613032
H   27.989521    8.867904   46.682800
H   46.403912   19.049242   47.344048
H   74.878944   61.001709   92.655647
H    3.649674   26.160286   96.168068
H   18.041039   70.197731   32.220840
H   98.442947    8.558345   26.406181
H   60.520321   44.660259    9.254544
H   97.463234   83.242661   69.437981
H   27.100922   98.336067   56.159061
H    5.270687    9.255083   23.354666
H   51.239574    2.124410   98.615150
H    8.900381   69.824478   20.374983
H   33.957481   60.504501   58.401627
H   39.769032   83.361023   40.702770
H   67.865509   68.280609    4.564117
H   69.363258    1.218258   39.528011
H   35.358273   26.088123   96.616676
H   67.609665    4.955029   57.255348
H   56.416294   29.483416   73.505730
H   61.840027   58.148727   12.356372
H   95.341637   81.151558   52.017941
H   43.291935   49.891479   88.338028
H   66.089676   56.411057   56.636433
H   77.579018   41.212830   10.513054
H   99.998009   53.170631   77.966217
H   77.086746   48.839638   28.517313
H   97.710281    9.050772   79.878510
H    6.219106   93.980125   70.986183
H   79.437981   64.110107   28.246834
H   51.486389   78.708572   57.220081
H   40.460564   82.359436   69.409431
H   68.624153   24.549477   56.165272
H   81.365257   97.114456   45.497856
H   98.911552   81.278008    6.356705
H   70.469597   59.810959   37.220387
H   63.783611   96.319649    4.000916
H   97.883919   77.623543   42.015091
H   21.840710   62.864384   26.966196
H   51.583321    6.953565   24.535353
H   21.971245   11.807121   52.510693
H   97.487610   14.726208   94.759003
H   16.861103   70.051247   22.418968
H    0.878164   41.606384   99.110443
H   91.042496   54.479855   76.829094
H   57.304714   39.789574    6.367052
H   21.856829   33.359921   52.470249
H    3.953028   19.840399   73.073090
H   67.663979   39.484550   49.623875
H   87.584106   34.156727   97.348251
H   20.335844   43.790340   54.635529
H   37.098701   28.574715   35.589371
H   75.691025   63.545818   77.939438
H   89.827194   65.857437    9.829897
H   27.349043   62.540283   45.351475
H   78.009872   95.573700   60.915848
H   91.061935   41.717464   26.691063
H   75.067444   30.708897   71.778503
H   88.355705   62.543541   81.472198
H    9.269625   40.127533   61.298866
H   24.417171    9.765676    1.103274
H   73.513855   73.012039   42.613144
H   59.563293   52.269199    3.405177
H   23.347147   44.586464   96.633842
H   97.760345   26.893293   75.126488
H   67.346016   14.129513   50.129128
H   99.326454   53.061565   92.193840
H   67.479202   64.943977   96.379631
H   99.711761   57.749447   46.713615
H   19.024084   44.437378    3.041546
H   50.937340   51.127026   67.623039
H   44.931339   93.643196   78.684586
