100
TIME:    4.467, STEP:  4467
H   15.237427   12.374619   95.056351
H   77.107948   46.924767   59.765663
H   56.538361   95.278358   70.909752
H   82.226379   48.610344   95.311043
H   55.160538   30.807253   44.585297
H   58.754871   96.368660   21.127878
H   18.855263   62.972263   39.778225
H   68.788902   75.053650   98.048180
H   43.820549   56.809570   18.904867
H   52.768715   80.522865   82.612885
H   84.745575   45.981876    9.465794
H   85.347572   47.598183   74.963249
H   59.018600   91.461357   81.158447
H   33.900856   91.307320   97.179901
H   34.837029   71.016998   36.047512
H   21.916111   21.029045   62.241150
H   64.897560   77.427490   80.036980
H   96.592979   77.467934   44.677197
H   14.843410   65.751541   98.702438
H   72.167076   10.954351   20.466715
H   99.198616   11.512882   36.001938
H   90.635986   50.013992   38.871948
H   26.103142   58.292397    4.543275
H    4.008801   90.256317   75.315308
H   69.818634   31.904198   69.529640
H   26.183214   94.598831   70.361198
H   76.885017   56.790806   88.599953
H   55.628628   64.944168   14.425797
H    8.301486   54.373043   46.014229
H   72.277985   80.281273   38.501869
H   91.859367   22.620338   55.964119
H   47.806255   29.093636   85.731499
H   85.006935   41.654945    0.219590
H   66.842880   64.348846   83.564003
H   69.733612   21.249321   96.738464
H   60.946262   35.303623    5.384153
H    8.242777   40.945297   60.447437
H   79.362053   77.205009   37.665012
H   56.520832   84.089775   11.426935
H   42.451859   93.997414   89.488647
H   29.963432    9.458714   47.586285
H   30.152634   12.338727   12.664982
H   49.717724   90.287216   24.130270
H   94.111298   87.631653   17.494684
H   69.175606   55.644653   38.364277
H   20.457264   48.118000    1.306671
H   76.633102   67.768456   68.346138
H   56.477978   41.378616   44.970558
H   95.606857   62.491627   66.285767
H   19.563984   98.722588   71.235573
H   43.203815   38.383812    0.516054
H   22.220060   49.235493   80.811920
H    1.530352   47.909912   43.433064
H   73.244926   34.321869   28.932053
H   85.125519   50.065670   38.341076
H   99.155441    7.834872   40.559586
H   79.439758   60.653328   80.836266
H   93.433731   55.034737   98.494614
H   42.579018   27.511086   68.550133
H   64.241409   71.137375   36.558479
H   41.482819   70.834496   66.112251
H   40.372063   86.363876   93.235855
H   77.325706    2.462647   27.154869
H   49.780991   66.096817    5.858654
H    9.624524    4.071711   11.561210
H   26.930092   20.204872   10.307376
H   29.173128    2.799505   82.728622
H   71.799477   73.009598   79.751030
H   79.537338   28.816193   80.070526
H   20.888128   72.820801   92.326904
H   80.184700   91.464920    8.562176
H    5.643050    3.273803   83.674950
H   15.734613   97.351570   47.215942
H   31.873425   66.700264   37.739555
H   77.542488   35.007755   40.027309
H   31.260454   93.865318   95.357498
H   72.530289   39.376537   70.049980
H   41.848110   58.635471   61.137138
H   75.720818   40.397739   67.525002
H   80.455017   65.672981   36.085106
H   98.284866   75.494827   46.970699
H   76.490044   73.400467   13.249632
H    0.421069   81.823303   55.359188
H   57.471443   94.409615   55.424713
H   34.824066   69.472466   14.726741
H   48.485455   73.136406   51.985291
H   65.495552   78.565628   36.547409
H   27.858435   47.655327   49.288177
H   48.387070   45.456429   91.656502
H   71.396500   25.490860   83.901382
H    6.830744   14.637386   27.796671
H    8.809953   31.441826   18.643377
H   71.796898   61.550697   64.444504
H   78.980606   84.189667   28.005880
H   79.358574   49.603592   18.733650
H   62.877472   19.334545   36.722725
H    8.033187   24.032406   80.287537
H   23.262632   54.271515   84.555138
H   95.915680   56.105778   70.879616
H   16.674219   63.999798   67.420776
