200
TIME:    0.792, STEP:   792
H   26.432875   60.643024   24.778435
H   32.884094   40.936729   12.306552
H    6.568249   93.299103   72.537163
H   36.449387   83.425667   30.065033
H    9.349418   97.719604   45.722069
H   71.661072   37.832848   49.211006
H   11.356719   54.912468   60.335751
H   15.258637   12.721953    5.478921
H    9.845339   79.230774   34.253384
H   91.429764   67.166405   74.299385
H   31.433680    6.385857   10.405388
H   33.060394   56.756516   39.044029
H   24.722332    5.328119   38.667900
H   78.313545   55.535854   68.865166
H   92.971451   76.193916   41.620407
H   13.210728    3.222565   42.415199
H   10.174256   33.571323   88.631142
H   23.454803    9.703805   33.693005
H   83.391449    9.717813   50.609779
H   91.812416   72.124107   16.072468
H   64.709648    4.313487    0.551166
H   77.740089   69.913612   49.302780
H   78.475365   58.527969   35.891273
H   20.300201   93.091835   89.855186
H   27.239182   34.904579   25.713512
H   18.204153   86.834000   88.725288
H    9.585612   69.872810   71.276077
H    7.178879   92.900612    2.183738
H   34.317768   39.751411   35.106094
H   68.105148   35.551968   79.531296
H   12.640812   74.511024   16.869694
H   21.888119   76.443832    7.193777
H   13.785713   20.863123   79.921646
H   78.157387   64.180153   47.938675
H   21.498152   66.991928   30.019800
H   15.030008   37.336105   85.806252
H    2.107769   62.514877   90.098976
H    5.610967   59.034153   90.348846
H   32.640625   26.634575   56.701622
H   84.788986   37.418530   42.133881
H   80.668556   79.437424   19.846413
H   40.814651   31.531740   23.462883
H   66.762894   75.101326   70.825294
H   36.051529   90.043831   38.490101
H   47.637695   93.136642   64.283958
H   33.291817   99.472786   48.691265
H   90.376373   99.168213    8.281371
H   76.677162   65.542183   27.803421
H    8.428184    7.804737   61.564312
H   42.363705   20.292562   82.359741
H   65.077011   63.509361    5.992698
H    0.037162   45.198956   75.409523
H   67.065392   78.636436   15.141638
H   14.191038   93.832504   89.877541
H   53.833908   64.108627   72.921120
H   98.229668   58.750549   96.723663
H    3.855160   18.834328   43.733326
H   73.439438   71.411606   95.339897
H   16.533411   85.140793   20.477055
H   30.336353   92.889565   56.789948
H   48.631767    4.606737   26.108463
H   99.857658   17.732531   53.298012
H   86.654770   36.641113   66.261993
H   37.500908   65.939873   15.992149
H   80.221848   84.308197   40.502186
H   17.085928   38.006462   42.785416
H   65.556007   11.518245   97.239662
H   94.250237   92.704933   98.200203
H   36.156982   13.312736   54.993050
H   42.059444   51.250988   50.953114
H   58.223007   86.139435   88.046600
H   16.626659    9.312661   40.900845
H   95.013321   35.206188   81.011810
H   25.848967   96.831413   76.642982
H   85.866470    9.807174   41.657700
H   67.266212   99.588600   59.270386
H   93.094452   50.499847   64.337593
H    6.110052   16.021559   29.091927
H   15.728884   54.284203   22.706930
H   59.957500   87.588394   68.083405
H   66.796257   20.772688   92.938446
H   50.908779   58.662785   70.792534
H    8.846095   19.721277   74.128899
H    6.673399   79.909767   11.842301
H   19.251389    5.161036   42.138855
H   40.218399   66.460724   16.291946
H   60.595238    3.934355    3.036845
H   70.741035   97.999664   32.262413
H   82.581619   73.400742   79.158691
H   20.679329   10.789968   48.792629
H   18.103775   39.658024   78.299225
H   80.210396   93.378601   10.412357
H   73.482895   10.636559   80.008575
H   35.275211   74.602043   84.261589
H   39.111565   49.459343   90.929955
H   46.412453   40.050880    3.107904
H   86.793510   95.186058   22.102440
H   92.049080   37.068111   53.880234
H   24.509972   64.248428   54.837456
H   76.802269    6.896698   27.385172
H   34.494534   95.688599   94.932716
H   11.097947   85.007828   62.819740
H   34.621841   16.996439   38.216274
H   48.399864   68.958649   12.083438
H   24.607004   20.218552   42.983990
H    9.276728   99.747116   18.046785
H   91.478363   36.898495   53.629978
H   61.498356   55.468376   97.396858
H   86.824821   33.121849   25.824604
H   22.098940   20.364008    8.238894
H   54.457146   91.269966    1.184223
H    8.158134   77.226257   96.798820
H   47.506729   86.680237   81.928596
H   61.354301    7.496922   60.719849
H   45.429482    4.954395    7.417766
H   91.511269   89.649971    3.836653
H    9.879424   16.215437   90.615158
H   37.970516   54.166492   22.944572
H   39.825371   78.438034   56.258640
H   85.349953   57.691952   69.935135
H   46.315804   25.427586   69.431755
H   94.471954   14.403553   64.425262
H   45.544502   98.541458   40.404766
H   95.944733   47.455284   93.692131
H   60.399162   95.285210   74.556602
H   67.945610   77.454834   14.873263
H   81.665810   51.767319   49.736526
H   63.354515   91.899315   39.664623
H   99.260750   32.502560   72.310738
H   94.500381   21.532997   75.905724
H   70.891609   65.476227   24.506374
H   60.512321   91.526230   22.344501
H   90.635262    9.450624    1.481783
H   73.853729   27.155636   56.500713
H   31.695255   91.389069   31.051468
H   47.655991    0.918410   75.549339
H   69.806595   87.971138   82.818214
H   95.926720   46.985691   74.476509
H   60.741577   52.053177   71.419533
H   43.746956   82.616356   80.119476
H   77.945602   46.835724   32.741089
H   31.826561   57.782829   59.114902
H   37.260658   66.920448   80.765533
H   32.419258    6.546188   87.271645
H   66.248535   51.460007   67.118713
H   66.165733   71.485580    3.408897
H   57.786674   94.360435   43.329472
H   27.579750   52.871147   65.657982
H   79.942108   41.745323   92.456970
H   27.058174   94.701347   69.339890
H   56.764221   70.684586   47.176991
H   57.023911   91.835442   30.853897
H    1.819150   11.198391   84.087479
H   24.501648   13.813204   62.311451
H   35.501423   68.457535   70.739189
H   79.888756   44.897617   71.044403
H   65.089340   77.438309   87.291916
H   53.894058   27.803268   22.656368
H   87.117638   99.654343   82.133369
H   57.490986   34.421112   99.424545
H   59.378159   61.983543   68.739067
H   17.686411   20.195690   30.761902
H   88.980217   10.502811   37.002529
H   31.536779   36.395756   47.582581
H   53.668846   40.818680   15.248335
H   21.424149   46.875546   59.284336
H   65.394646   88.638741   58.073475
H   24.114422   56.047401   70.838638
H    1.573834   26.375090   35.553497
H   51.663597    6.294087   84.187286
H   68.819580   12.198379   35.929749
H   27.093332   44.943932   59.153214
H   48.338379   53.734577   74.892288
H   64.428696   61.335258   87.046219
H   45.781860   90.884079   73.276405
H   17.948357   50.644630   23.822083
H   29.747059   70.165588    9.998322
H    6.622302    9.727287   71.938553
H   61.484493    8.547044   62.679157
H   60.042610   60.376366   94.171928
H   71.339874    4.970786   28.885235
H   30.361624   30.779873   89.767838
H   40.218548   89.584564   17.003189
H   63.502151   26.241756   97.497780
H   92.661331   64.392426   76.122665
H   10.816269   40.881607   86.716896
H   50.572937   95.069588   11.496161
H   63.901703   90.606392   44.841896
H   90.632240   63.634983   72.852127
H   59.651505   55.270565   72.677139
H   74.189301   12.761497   75.359566
H   43.127739   99.930298   17.593412
H   16.361610   30.656303   70.452095
H   25.460115   85.561096   44.437763
H   65.951614   29.599648   20.010635
H   76.675797   11.737946   22.003704
H   13.130485    0.611105   22.098127
H   12.867014   86.435417   31.399178
H    4.552264   13.156435   53.329689
H    2.250414   16.291019   90.079788
