100
TIME:    3.183, STEP:  3183
H    2.069405   30.123924   96.231888
H   12.729168   77.322754   78.782700
H   34.467651    2.902266   85.976219
H   82.010864    1.509652   65.693665
H   66.661209   27.888988   79.400787
H   78.663216   97.759712   93.968834
H   86.149147   76.269630   39.367683
H   69.708771   63.970753   15.940947
H   75.383720   80.260864   99.727715
H   87.858498   62.086525   32.332909
H    4.180115   94.317627   33.147083
H   34.354713   83.238129   66.359627
H   40.791611   69.131424    8.765047
H   97.477821   95.264961   99.466789
H   19.217968   85.709122   97.767647
H   73.542740   33.332367   68.824562
H   68.149208   92.501877   63.149395
H   69.162437   39.911461   89.194519
H   94.843788   11.882876   31.055048
H    6.765129   38.220798   33.046043
H   75.392990   39.339935   70.848740
H   67.537659   48.309464   48.216415
H   43.246391   68.735085   41.281708
H   23.306351   74.856781   70.677208
H   15.742070   33.731644   60.046974
H   32.064083   32.767094   90.828728
H   87.605286   10.162766   63.129650
H   63.968502    5.011368   71.986412
H   80.381836   37.878342    6.710688
H   23.043465   12.060868   36.427521
H   41.326466    7.481722   57.550117
H   66.733772   64.565620    4.597806
H   94.563324   35.598381   84.546730
H   12.590245   82.019844   37.655548
H    1.649616   18.309906   18.551346
H   49.303921   34.526035    9.698430
H   85.089973   87.966782   59.273251
H   32.432289    0.696428   47.056271
H   10.716037   12.065443   35.855530
H   63.389423   14.201182   88.466164
H   17.716280   65.397583   17.335798
H   45.551262   54.714500   52.340973
H   38.657879   82.587448   31.385391
H   76.103195   66.119324   91.950890
H   80.553520    6.307732   28.489157
H   37.022541   23.627644   96.093086
H   66.601852   97.939423   56.016251
H   56.409405   28.155249   65.523933
H   58.069588   68.832573   17.502394
H   92.637077   79.189079   61.040028
H   43.301777   62.345444   86.977875
H   59.820377   68.381424   65.105278
H   74.903984   40.464844   18.005215
H    2.985035   55.275818   72.273651
H   87.357773   37.534225   27.420431
H   97.548874    9.186590   84.269974
H   98.041039   97.702339   58.717247
H   89.043694   76.292435   31.569958
H   41.312798   73.258118   67.123695
H   48.972839   72.444687   73.078499
H   60.486855   30.548161   66.222946
H   85.943718   98.315170   51.335098
H   90.154213   90.080620   15.202621
H   61.611603   59.109230   40.723125
H   58.662861    6.622569   91.987709
H    5.808517   84.036537   34.387604
H   32.190956   58.405010   20.737738
H   60.494194   99.575684   18.368406
H   15.541536   21.076241   60.601734
H   94.873596    8.237677   95.030640
H   20.957802   78.828270   23.966610
H   11.514636   45.887619   89.666138
H   99.453400   60.860371   80.135979
H   60.144375   47.953445   14.033394
H   15.637242   33.175877   42.691319
H    0.903202   11.572695   81.753662
H   55.951420   50.665955   47.342518
H   81.523453   42.592236   90.224670
H   14.150125   44.169254   53.195656
H   43.425087   35.600620   46.702866
H   73.167557   62.211254   70.229279
H   80.148651   65.014969   20.617132
H   19.187140   60.386871   33.064823
H   69.134430   84.535004   72.698334
H   97.343048   49.786854   39.196205
H   78.035767   25.970505   62.820385
H   79.740089   71.922890   75.320999
H    7.193472   50.455643   62.640320
H   21.739677   16.948030    2.158670
H   84.918671   78.318802   38.002205
H   54.284088   45.304073    0.680874
H   13.801905   34.885284   94.175331
H   89.491165   23.022467   65.150719
H   54.877552    6.304668   41.431824
H    1.556914   64.616913   89.229454
H   56.824341   70.038155    3.042719
H    9.951034   50.346355   54.132454
H   18.550688   43.339020    5.105642
H   57.082634   50.570957   78.427498
H   36.919033   96.954018   91.110992
