100
TIME:    4.191, STEP:  4191
H   33.901520   37.685211   95.309036
H   84.730629   31.967890   42.361946
H   51.794189   75.421486   74.148338
H   82.180054   59.981194   10.439467
H   57.632645    8.684634   52.069000
H   63.035786   96.667671   93.794609
H   33.320362   44.334599   18.194666
H   90.481956   51.175999   23.389942
H   50.605156   83.345764   36.278309
H   60.311378   76.559914   71.806366
H   10.418411   34.876347   36.051311
H   95.880348   33.763649   94.609550
H   76.630783    8.151745    8.583328
H   47.566933   92.158028   76.177521
H   31.480358   95.670685   49.315609
H   33.014175   45.168938   85.151306
H   87.091774   59.171520   54.911613
H   90.695641   90.892189   54.247059
H   10.544598   54.172546   84.160385
H   79.604454   16.815603    1.675420
H   15.576828   38.990330   43.491959
H   64.175598   49.647598   62.375916
H   29.788139   60.537086   12.440225
H   29.652214   86.946136   95.812317
H   79.690216   53.793083   67.491310
H   27.441378    2.757007   96.316216
H    0.683818   68.264053   83.125099
H   78.917053   52.061417    5.302269
H    2.299715   29.332016   59.061226
H   61.694672   87.112206   16.561081
H   80.998100   97.871086   77.800362
H   30.379377   36.718422   11.282158
H   65.566994   61.848732   75.355331
H   55.181442   89.642670   95.191750
H   76.594025   42.112724   79.930664
H   36.953770   13.686317    6.252497
H   81.770157   51.052719   38.699635
H   90.770805   82.254509   18.189274
H   68.170990   90.103691   38.172890
H   68.447243   19.835640   67.774536
H   48.826294   99.989136   41.083843
H   54.957932   99.951187   99.698639
H   47.340374   88.632126    4.194694
H   11.735510   83.007507   90.508545
H   93.117561   66.533783   14.745833
H   24.018024   42.853718    0.184679
H   74.476852   52.758934   65.697151
H   56.463238   38.535904   27.893227
H   87.537766   85.351105   77.294434
H   13.775378   94.523796   90.540749
H   43.224873   65.029503   97.606049
H    8.807722   74.846390   98.929474
H   95.806572   46.309570   59.463856
H   79.637871   38.825989   16.753662
H    7.100651   25.877344   35.993206
H   98.810104    8.125311   49.955276
H   61.941532   68.617134   54.586449
H   13.985152   81.099251    5.603992
H   20.812262   15.848602   89.737816
H   82.455826   49.923023   44.408577
H   24.072306   83.670921   87.632637
H   50.167839   88.932846    5.723546
H   58.588467   21.296818   46.081017
H   30.827536   64.593338   13.352886
H   98.669502   26.115414   85.858406
H   43.885292   33.925697   93.988434
H   51.316940   93.256805   69.403671
H   90.864601   57.225174   66.556633
H   65.782822   48.647797   97.379486
H   15.296408   58.939171   92.908081
H   88.948677   10.243959   11.873409
H   28.400330   12.434045   63.468472
H   33.730988   11.003315   54.293243
H   37.950512   84.165047   54.138847
H   64.234383   34.613987   19.104296
H   24.734850   76.177330   13.928785
H   47.470917   63.299541   65.168938
H   28.881130   76.682060   45.893883
H   62.484550   41.208439   64.446449
H   93.990540   80.703560   59.862816
H   92.885818   72.639481   30.474642
H   55.781624   71.597977   36.329102
H   82.961586   77.213531   29.072063
H   38.484230   70.791939   80.633591
H   48.262726   86.735100   41.481903
H   54.838390   62.999298   32.819092
H   47.062141   98.633072   23.386702
H   23.416433   69.752678   52.158264
H   42.659531   60.823921   93.913826
H   95.797501   36.846970   74.034012
H   95.535553   99.734291   21.968058
H   88.387985   10.685949   13.384359
H   54.104698   53.268929   43.100994
H   52.304508   67.449249    9.396643
H   84.130119   74.325890   12.391995
H   40.081024   30.232662   50.978401
H   29.940163    8.193494   96.160400
H   22.249784   51.921539   88.972923
H    9.063591   54.916050   93.996132
H   99.531181   71.083412   94.007507
