100
TIME:    4.750, STEP:  4750
H   96.099770   86.422188   94.797256
H   69.291939   62.260986   77.609131
H   61.402855   15.638041   67.589027
H   82.273880   36.951103   79.799934
H   52.625732   53.490952   36.911789
H   54.365383   96.062065   49.154980
H    4.023561   82.080582   61.909191
H   46.545662   99.538055   72.065346
H   36.863869   29.600357    1.090610
H   45.034752   84.586327   93.693481
H   58.421600   57.369068   82.205154
H   74.547661   61.783592   54.818672
H   40.959732   74.348183   53.038086
H   19.889111   90.435036   18.716799
H   38.278664   45.738037   22.443665
H   10.536476   96.276566   38.749939
H   42.140450   96.147049    5.799589
H    2.643597   63.697124   34.866161
H   19.251251   77.622375   13.611452
H   64.541069    4.944445   39.734688
H   82.404991   83.339874   28.321434
H   17.767471   50.389679   14.771866
H   22.324684   55.990776   96.446274
H   77.715012   93.650452   54.297447
H   59.696686    9.460159   71.619667
H   24.893141   86.234406   43.749546
H   52.481636   45.025768   94.213661
H   31.750923   78.153656   23.781168
H   14.455514   80.049278   32.636330
H   83.129715   73.277092   60.999886
H    2.996510   47.996861   33.574059
H   65.675117   21.275467   59.532753
H    4.940317   20.949575   25.714468
H   78.800079   38.413513   71.641350
H   62.699203   99.856369   13.970810
H   85.547256   57.469135    4.493787
H   35.386002   30.581379   82.746811
H   67.663948   72.027443   57.634701
H   44.574429   77.923332   84.002197
H   15.796881   67.505028   11.754053
H   10.623127   19.168272   54.253643
H    4.717673   25.039991   25.959169
H   52.155369   91.984283   44.571060
H   76.039474   92.373077   45.165382
H   44.628132   44.479851   62.580952
H   16.806194   53.515797    2.457117
H   78.844040   83.158653   71.062309
H   56.493092   44.293427   62.481010
H    3.879703   39.054394   54.996170
H   25.499401    3.029387   51.442146
H   43.182224   11.061497    3.499417
H   35.972878   22.974504   62.234657
H    7.400670   49.550842   26.996023
H   66.689842   29.703514   41.420128
H   62.592957   74.868416   40.748493
H   99.509537    7.537184   30.925598
H   97.382034   52.487541    7.751978
H   72.360733   28.309015   91.205429
H   64.897911   39.468689   46.823372
H   45.567165   92.888336   28.509285
H   59.334412   57.673550   44.048012
H   30.328024   83.729752   80.432281
H   96.537544   83.151413    7.748711
H   69.214638   67.638428   98.174866
H   20.857340   81.469818   37.916248
H    9.545631    6.136419   27.040396
H    6.466775   12.583154   96.391525
H   52.250816   89.194351   93.280067
H   93.640701    8.481613   62.322365
H   26.621668   87.053711   91.730988
H   71.198448   72.209900    5.167187
H   82.307648   93.881531    4.394107
H   97.281952   83.351845   39.959145
H   25.642467   48.790699   20.924461
H   91.188118   35.411510   61.480312
H   37.951561   12.002748   76.314072
H   98.223801   14.847546   75.054817
H   55.143963   40.129665   76.765236
H   89.293037   39.566479   70.681633
H   66.576202   50.259266   11.704433
H    3.822129   78.422592   63.885235
H   97.722816   75.248672   89.585106
H   18.322214   86.556091   82.309998
H   76.941650   18.626768   29.577904
H   21.043711   51.770515   87.293251
H   41.971394   83.530403   71.637589
H   84.396477   57.989227   50.041901
H   32.413193   24.997869   46.345299
H   54.259872   29.699339   89.341927
H   46.375111   13.846733   94.019012
H   18.412285   29.918549   33.773113
H   29.750795   52.724503   24.035650
H   89.937813   70.044044   86.329330
H    6.332740    1.354756   47.086239
H   74.466011   24.253380   25.235836
H   86.252090    8.159647   22.105492
H   85.569908   40.273296   64.012100
H   24.301168   56.681091   80.025307
H   82.434143   57.325680   47.175278
H   34.251606   56.738682   40.157856
