100
TIME:    4.770, STEP:  4770
H   94.747231   84.588081   94.778946
H   68.739571   63.344818   78.870117
H   61.746635   17.076870   67.354347
H   82.277237   36.127129   78.703743
H   52.446594   55.094040   36.369492
H   54.055172   96.040398   51.135723
H    2.975378   83.430984   63.473217
H   44.973701    1.268315   70.229103
H   36.372231   27.677444   99.831657
H   44.488182   84.873497   94.476562
H   56.561249   58.173817   80.278580
H   73.784416   62.786095   53.395027
H   39.683487   73.138771   51.050781
H   18.898891   90.373390   20.238863
H   38.521889   43.951538   21.482285
H    9.732262   94.527298   37.089783
H   40.532173   97.469986    7.620267
H    3.071272   62.724072   34.172802
H   19.562759   78.461304   14.665071
H   64.002129    4.519716   41.096382
H   81.218163   81.348907   27.778603
H   19.684891   50.416229   13.068680
H   22.057655   55.828117   95.874069
H   75.856796   93.890320   52.812004
H   58.981354    7.874008   71.767372
H   24.801970   85.643280   41.868900
H   50.756935   44.194317   94.610390
H   30.063377   79.087189   24.442331
H   14.890428   81.863853   31.690922
H   83.896622   72.782097   62.589851
H    3.783663   49.790226   31.991722
H   66.937935   20.722946   57.681252
H    6.349123   19.486334   27.516226
H   79.645111   36.580627   70.798759
H   62.202072   98.344528   15.188614
H   87.285843   59.035603    4.430863
H   37.304184   29.848881   84.322739
H   66.837227   71.661537   59.045986
H   43.730160   77.487541   82.064026
H   13.913107   65.632774   13.327616
H    9.256321   19.854460   54.724834
H    2.920131   25.937590   26.898653
H   52.327641   92.104218   46.015610
H   74.762314   92.708160   47.120949
H   42.893360   43.690819   64.292381
H   16.548168   53.897266    2.538418
H   79.000290   84.246300   71.254265
H   56.494160   44.499420   63.718498
H    4.464286   37.398052   54.198288
H   25.918865    3.333800   50.043373
H   43.180698    9.130573    3.710255
H   36.944862   21.118654   60.921638
H    7.815537   49.666809   25.834448
H   66.226585   29.377129   42.302696
H   61.000549   76.621346   40.918629
H   99.534561    7.516146   30.244751
H   98.650040   51.910454    9.654177
H   70.871475   26.420206   90.690292
H   66.475365   40.313721   45.287880
H   44.247433   94.425507   27.940437
H   60.596008   56.743526   42.488716
H   29.618261   83.543594   79.527435
H   97.895271   81.786667    6.377251
H   70.587929   67.747375   97.631958
H   21.651178   79.872528   39.778736
H    8.317070    5.142195   28.222952
H    4.862104   13.274568   97.357101
H   50.869286   90.338150   94.236183
H   94.637405    7.044540   61.067940
H   27.026865   88.059570   91.688873
H   70.563377   70.849121    4.927262
H   80.658478   93.217773    5.858417
H   95.977936   82.362465   39.446297
H   25.202251   47.524982   19.736183
H   92.152473   35.440044   62.996426
H   38.424431   13.284563   74.968246
H    0.039597   13.114071   75.408516
H   56.083599   38.821835   77.869667
H   90.252205   39.507732   70.904716
H   65.595367   49.169941    9.981449
H    4.213497   78.629501   65.080605
H   99.223366   75.379288   87.912743
H   19.587320   86.890564   84.214600
H   78.317688   20.338270   27.751274
H   20.069818   50.519447   85.354469
H   41.511036   84.264961   73.026443
H   85.732231   56.535065   50.995575
H   32.735153   23.396688   46.137321
H   54.674911   28.585829   89.178352
H   44.606770   13.023827   94.734039
H   19.230766   30.998489   34.195477
H   31.230593   54.228714   24.416662
H   91.219856   70.644325   87.875961
H    8.265855    2.567916   48.434658
H   74.120247   22.461845   25.695354
H   87.904007    7.369905   21.072472
H   83.982384   41.421062   62.861893
H   24.374563   56.851379   79.705177
H   81.481384   57.411892   45.500015
H   35.493824   56.225529   38.231129
