100
TIME:    5.907, STEP:  5907
H   17.856184   80.320213   93.737991
H   37.337440   24.955160   50.561459
H   81.298233   98.877762   54.006283
H   82.468079   89.281219   16.379719
H   42.262589   46.229523    5.542873
H   36.419666   94.808601   63.737278
H   43.384007   60.207844   52.388172
H   55.607742   99.633255   65.833717
H    8.422600   18.359558   28.261923
H   13.419897    1.199233   39.000675
H   50.800278    3.923639   70.756630
H   30.387238   19.777760   72.462440
H   67.128983    4.381977   38.072441
H   62.601463   86.868843    6.764576
H   52.349236   42.390182   66.829956
H   64.016220   95.081093   42.708710
H   49.101357   72.672020   11.125860
H   27.385283    7.404079   94.758827
H   37.270710   26.158953   74.564865
H   33.372040   80.370399   18.508600
H   13.746956   68.157593   96.918221
H   28.690186   51.925613   16.242630
H    6.875844   46.580971   63.344238
H   70.213295    7.493136   68.369141
H   18.316189   17.704773   80.164406
H   19.618883   52.034706   34.950035
H   52.712273   96.929214   17.169851
H   34.126492   32.158485   62.029465
H   39.613197   85.021423   77.945374
H   27.493282   44.641624   52.977951
H   48.533890   51.747143   42.035896
H   38.728733   89.308365   52.423470
H   86.438347   36.297630   29.946165
H   27.686951   32.381340   22.898325
H   33.940155   12.395479   84.423325
H   86.123245   48.090538    0.854769
H   46.356911   88.207642   73.913857
H   19.846180   50.854313   39.281780
H   95.734833   52.712822   71.880180
H    6.820425   59.190533    2.784464
H   31.549496   58.864235   81.512062
H    2.404116   64.767441   81.521751
H   62.121288   98.922470   28.143223
H    2.162780   11.791708   58.290321
H   44.267017   98.833389   61.588360
H    1.876531   75.583817    7.159029
H   87.883102   46.081131   82.166939
H   56.554882   56.210159   34.069584
H   37.696877   43.231651    8.840566
H   49.765400   20.639669   70.519821
H   43.095989   99.360367   15.696414
H   92.202202   15.613655   86.278206
H   31.401089   56.259521   59.800953
H   39.898376   10.822719   92.476707
H   70.470757   76.266693   50.590832
H    0.952916    6.320132   91.538574
H   70.728920   19.103035   17.792442
H   86.208405   19.044390   61.404770
H   56.148361   88.353951   58.001045
H   69.216614   81.819916   95.601463
H   32.319233    3.869898   53.838848
H   89.266945   72.960556   28.080872
H   75.087471    4.199627   28.409729
H   48.663261   73.941055   66.767654
H   66.783707   89.061905   45.662479
H   38.469505   48.618553   95.451271
H   13.638714   52.581196   52.252518
H   72.328819   55.365147   48.591358
H   51.307392   25.346977   89.755585
H   50.058922   45.247574   89.294678
H   34.459602   93.488403   91.289467
H   86.907913   55.483170   89.104782
H   21.844025   26.122063   10.290894
H    0.175886   75.564232   52.179375
H   46.970707   37.062199   49.188980
H   65.306664   86.156303   98.463898
H    3.271849   14.566187   95.516289
H    9.501933   64.477577   40.661743
H   44.774273   36.168003   83.587013
H    9.840385   87.237068   12.027780
H   26.462938   90.392288   33.036030
H   84.548676   82.778549   92.820091
H   91.505287    5.904877   92.496033
H   56.540932   17.633781   23.904110
H   64.707314   79.399193   75.135025
H   15.339703   26.027294   51.983261
H   61.669899   73.865761    5.212032
H   51.029808   32.389194   34.331367
H   78.269882   65.279884   79.879158
H   44.080738   66.247849   35.378532
H   65.761436   92.392868   58.206829
H   15.357080   39.741821   46.077194
H   64.103561    4.757421   75.801956
H   18.156555   71.544014   25.098864
H   54.463554   20.616261   51.822269
H   81.815552   62.470551   62.344696
H   93.732780    6.671341   97.472061
H   26.875452   78.736145   60.296417
H   27.317047   62.313053   50.264641
H    6.118504   27.052040   28.700481
