100
TIME:    1.363, STEP:  1363
H   25.148008   97.027359   97.898148
H   63.355919   78.645515   63.977871
H    3.183676   71.963829    7.335959
H   81.705383   76.494164   65.454216
H   82.962784   82.007988   28.747780
H    6.880573   99.731453   13.727859
H   81.535088   53.374889   97.041145
H   12.757187    6.519433   83.048012
H   20.122856   55.246521   14.290671
H   37.591881   35.954018   61.065826
H   73.472092   21.085514    8.458769
H    3.816626   92.011009   95.909691
H   56.560875   79.243904   89.657890
H   87.594093    0.874913   60.966137
H   97.078941   48.276920   85.254410
H   46.721359   92.518059   19.899887
H   14.484140   72.134354   97.453697
H   30.271004   28.418137   52.293747
H   66.489601   35.533241   35.170361
H   55.794823   76.868759    9.131968
H   83.394287   20.526176   20.250477
H   93.041069   45.898941    3.197487
H   67.546013   83.537025   93.352325
H   92.404030   53.028782    5.845395
H   80.835564   78.076210   46.618797
H   40.409267   86.995850   61.417816
H   44.545990   85.819107   27.013472
H   17.535904   20.059933   11.825572
H   40.808167   72.754059   92.743217
H   53.256496   57.105728   91.743553
H   69.718300   44.271713    1.556482
H   51.817783   14.855542   73.084343
H   66.366776   68.758736   20.586760
H   35.691780   48.811867   14.330481
H   46.892326   55.887825    7.726661
H   91.062012   91.554337   15.954417
H   10.528794   54.620461   15.864205
H    7.657017   34.007374   18.625080
H   89.444839   51.411964   11.489318
H   34.814278   84.583855   45.272427
H   42.094795    2.951101   74.456223
H    9.122520   73.031212   66.836151
H   22.981153   71.673447   99.924812
H   92.323021   35.613846   14.001292
H   38.425415   78.112839   72.745682
H   60.502918   88.913918   88.706001
H   50.472095   99.265747   39.269966
H   56.312206    9.416769   52.912640
H    4.874140   19.565971   90.103287
H   54.476261   51.495129   88.335045
H   43.440632   38.055031   67.788116
H   71.372261   37.262707   84.583450
H   37.153328   29.911865   23.708332
H   45.127522   84.967094   91.962662
H   32.251564   77.993256   11.972130
H   95.271652   11.099499   46.227066
H   82.659775   50.218285   85.620018
H   24.565964   48.169350   78.447464
H   97.774651   96.358017    6.844692
H   69.073624   32.552708   24.842613
H   45.680096   15.186795    8.126249
H   50.535614   15.258591   33.683411
H   66.685516   14.206913   40.051125
H   36.633919   49.208870   90.134270
H   86.422157   51.984165   22.494383
H   17.613869   74.514320   26.776548
H   78.212357   95.485962   32.868786
H   86.213936   95.487961   31.361883
H   24.833565   51.849838   74.748268
H   57.995972   16.697672   98.863037
H   78.750572    2.661860   45.800388
H   61.580502    6.289900   56.415031
H   18.121624   50.885609   26.799160
H    0.191546   63.127747   22.201454
H   27.887981   30.583086    4.722159
H   57.883717   94.927879    4.217627
H   90.706474    8.410940   15.151819
H   96.016541   61.598862   89.713043
H   26.884684   49.509617   32.886696
H   32.681534   34.721931    3.497575
H   37.554829   43.382519   61.451855
H   43.590488   53.128983   72.804153
H    4.039045   30.005857   59.718876
H   43.932659   28.795267   38.935005
H   85.962296   63.629211   15.624756
H   19.920704   59.121967   36.434227
H   58.186409    4.251732   88.536118
H   77.896774   96.169693   81.574547
H   83.968208   18.282625   17.048321
H   45.831161   53.199272   72.940147
H   79.802101   47.029163   62.245800
H   79.135155   98.017128   59.491165
H   72.736794   68.469406   24.360510
H   78.967201   95.908363   18.719151
H   33.027821   27.640305   47.406334
H    6.499830   41.907158   97.048019
H   54.413681   45.900143   58.801773
H   11.869618   27.842804   34.228645
H   43.781761   42.725651   30.878971
H   23.888321   43.693714   66.409492
