100
TIME:    1.982, STEP:  1982
H   83.287994   40.261765   97.331436
H   46.137337   12.205275    3.024210
H   13.823629   16.497051    0.068800
H   81.809280   50.992149   31.522606
H   77.418457   31.623554   11.964899
H   97.282234   99.060844   75.030357
H   49.093029   95.171059   45.447838
H   64.105003   60.069134   26.213158
H    4.906654   95.732071   75.327965
H   20.677126   44.841942   85.302757
H   15.894211   45.992481   48.832836
H   80.193481   23.037859   51.847878
H   17.187710   41.793724   28.134525
H   56.944450   98.966774    8.070393
H    4.607985   92.987274   55.500710
H   21.833157   38.376228   68.518326
H   64.717621   13.069832   53.809937
H   43.498993   98.315804   30.834145
H   76.133141   61.502792   67.780426
H   39.119339   63.721157   51.276405
H   46.661942   58.903843    3.449844
H   52.394962   46.715950   50.491867
H   59.281471   78.502739   75.642593
H   34.892265   60.452702   59.874725
H   58.696037   28.983482   51.185547
H   37.570988   68.549393    3.399781
H   91.168678   60.089687   39.296940
H   65.305496   48.952770   32.286182
H   54.267563   28.914263   63.482018
H   76.992256   41.785629   40.951534
H   94.068001   99.781097   52.574894
H   90.901978   97.753654   15.780373
H    9.966579   23.469494   76.351166
H   61.845512   92.084366   88.253098
H   31.506035    9.096177   45.417694
H   44.882092   40.180599   13.826318
H   69.897858   31.951998   64.639160
H   82.071068   22.677868   62.304363
H   61.618904   38.198143   52.162384
H   76.510658   26.634783   93.973648
H   99.794487   24.190832   89.039597
H   53.490326    0.809637   95.917892
H   28.312963   75.385406   44.635002
H   52.794899   45.989388   74.522873
H   84.731499   53.689571   25.715460
H   52.517010    0.720401   91.218422
H   57.008167   32.658684   44.559273
H   56.345264   15.789911   91.212883
H   22.966505   68.299217   65.413559
H   67.457420   60.916706   45.040363
H   43.393406   78.294060   74.314743
H    1.455084   79.824677   43.947910
H   49.994064   33.501038   87.758354
H   30.794445   74.870186   19.276522
H   82.973267   32.257366   17.224562
H   96.046158   10.448961   25.154846
H   21.902384   32.357430   44.492195
H   78.473236   89.711899   62.503983
H   46.592361   22.513102   59.325127
H   28.227314   80.131256    7.237367
H   84.726517   86.399727   59.862339
H   28.566471    9.495844    5.674085
H    8.670094   71.995674   97.585129
H   79.140320   52.576080   73.331276
H   10.990294    2.544467   80.141388
H   79.587929   43.741890   63.376659
H   28.549379   16.886229   62.753368
H   43.455559   30.890491   60.953663
H   55.686279    7.372437   35.925117
H   70.536926   47.832581   97.559601
H   59.095131   60.545212   38.376469
H   10.542548   85.746246    1.733948
H   77.761353   20.269024   10.926517
H   86.571526   23.954306   85.412407
H   57.730385   31.463850   51.647198
H   72.516289   34.600006   62.564823
H   46.908020   54.761131   26.101637
H   25.098293   21.122133   23.898037
H   56.556747   47.696140   39.791130
H    2.324270    1.009475   50.170082
H   49.668285   49.786358   98.448662
H   90.034561   57.171524   21.044008
H   43.203991   40.338440   18.675449
H   86.513802   81.763893   82.396088
H   55.822693   24.908653   55.619751
H    5.672731   81.857552   79.419289
H   99.528008   59.245377   18.052855
H   87.861450   46.610779   75.137520
H   96.813667   83.817863   11.984274
H   91.102859   27.730316   95.070229
H    5.134210   80.453293   75.317947
H   24.935350   44.570591   71.286400
H   12.453102   87.019760   72.248001
H   38.795841   33.455288   60.453476
H   22.324284   72.194763   61.630791
H   57.626663   17.464411   65.076050
H    5.280828   81.423500   23.202850
H   14.142367   33.113220   24.323532
H   14.295227   45.393917   79.027603
H   62.330246   27.793362    6.790622
