100
TIME:    5.474, STEP:  5474
H   47.137856   20.028034   94.134415
H   49.296211    1.490597   23.258331
H   73.852081   67.725494   59.090412
H   82.395401    7.120918   40.114479
H   46.140930   11.522661   17.282696
H   43.135738   95.277702   20.854612
H   66.076241   30.968319   18.527010
H   89.640686   62.171413    5.588721
H   19.066566   59.990616   55.519104
H   25.249868   94.981895   22.045149
H   91.076889   86.500961   12.466461
H   46.914787   98.074181    3.284203
H   94.759689   30.567390   81.097588
H   84.041359   88.203468   73.814537
H   47.083412   81.067886   87.642181
H   81.425812   32.953079   78.651093
H   83.920540   44.032734   71.708160
H   18.125494   28.472328    9.768999
H   30.527847    7.992854   51.752476
H   45.036797   89.567421   89.028023
H   39.441795   11.262833    8.670937
H   87.178055   51.350800   53.116608
H   12.657763   50.102531   75.732468
H   10.444103    2.313204    0.525719
H   33.801666   52.044945   76.966591
H   21.592741   64.835663   75.666962
H   90.049744   14.928745    8.578089
H   70.660805   11.947502   47.715279
H   30.198143   45.735874   98.414032
H   10.891150   55.358269   18.555836
H   31.491039   12.920033   76.293480
H   11.388876    1.273430   92.508476
H   55.939304   67.978462   90.938103
H    9.390660   72.063316   41.139580
H   44.703049   45.127731   58.055313
H   48.482853   14.175695    2.216523
H    4.827215    4.064945   39.795025
H   37.741489   58.779476    8.727255
H   14.011989   62.147697   13.841108
H   47.603497   99.725212   68.718346
H   61.142471   44.008270   71.310768
H   39.648552   57.535217   59.968479
H   58.391605   96.325897   96.867226
H   29.810345    4.523749   15.954986
H   81.826393   15.916888   24.535658
H    7.464111   67.324997    5.399901
H   84.500290   22.532921   78.011101
H   56.531757   51.750397    7.277987
H   25.041061   79.092834   26.113403
H   40.684002   14.049131    0.806480
H   43.126987   41.164413   11.131764
H   71.158730   55.793789   14.703377
H   22.418797   53.748840   84.947960
H   49.924583   17.888359   73.369102
H    4.946555   38.320133   46.907398
H    0.413568    6.775606    6.278931
H   43.279099   31.596977   76.610359
H   18.450294   59.935982   72.557480
H   21.999792   70.059013   91.241142
H   97.792130   48.538639    7.917000
H    5.004364   24.006054   87.599907
H    4.634528   76.990860   47.674095
H   45.690624   33.747604   58.101837
H   18.928932   71.582336   78.521606
H   49.595985   23.644463    5.338527
H   65.069511   70.144341   69.848930
H   48.379486   37.612911   31.347740
H    2.239022   30.601809   27.891455
H   29.725447   56.459602   16.912178
H   41.288055   23.468063   90.206451
H   48.208885   22.949707   96.482613
H   22.611092   69.853516   57.403442
H   50.076569   47.538834   21.394051
H    9.706646    2.970085   77.907249
H   26.095247   36.444439   16.364342
H   55.069450   58.406006   27.599081
H   63.959705   52.096798   87.858711
H   89.158798   92.788811   16.747507
H   24.011600   37.439861   78.757256
H   31.072376   10.823882   49.331207
H   17.989389   85.912704    7.157496
H   52.049782   79.970551   29.041018
H   64.119041   98.664001   51.260380
H   26.752729   80.580978   63.450642
H   85.790428    6.482141   17.109352
H   25.306446   10.122458   21.914551
H   32.750816    5.348469   84.564911
H   44.065971   67.039612   38.820862
H   69.284286   89.389030   83.420540
H   82.363739   84.060471   19.900213
H   48.041313   69.010498   49.062664
H   83.319466    7.176691   37.828285
H   36.347321   91.766792   42.317402
H   76.308418   45.274364   95.902626
H   61.949348   59.402981   41.872044
H   46.051559   79.569611   84.709579
H   28.101713   81.822426   22.374588
H   26.958059   62.845520   68.436623
H   47.944275   60.446560   86.532021
H   79.221771   38.162540   70.413620
