100
TIME:    3.718, STEP:  3718
H   65.889069   81.061829   95.742081
H   97.846581    6.328052   12.530056
H   43.663780   41.391411   79.698524
H   82.100662   79.468193   36.366695
H   61.869263   70.771599   64.894333
H   70.369148   97.180107   46.952324
H   58.108547   12.394064   81.205376
H   27.658829   10.256782   66.820457
H   62.232399   28.822952   66.053474
H   73.237755   69.768333   53.284409
H   54.415726   15.844051   81.612587
H   13.933838   10.054695   28.277323
H    6.761005   36.763336   55.589417
H   70.987419   93.615944   40.181927
H   25.726280   37.920273   72.052773
H   52.032043   86.539116   24.415033
H   25.127815   27.887669   11.852560
H   80.591270   13.894456   70.647156
H    3.177725   34.328285   59.239368
H   92.350395   26.860430   69.471367
H   43.645325   86.078613   56.328117
H   18.828629   49.019684    2.656241
H   36.103371   64.383965   25.974430
H   73.599007   81.273254   30.942287
H   96.607819   91.302933   63.998085
H   29.608976   16.826010   40.682541
H   41.471622   87.924271   73.742470
H   18.828096   29.983368   89.668449
H   92.014755   86.418228   81.420753
H   43.557327   98.818840   78.959106
H   62.384090   55.455112   15.222618
H    0.514126   49.785538   55.070168
H   32.248005   96.456200   32.743759
H   35.196442   32.990150   15.117786
H   88.351181   77.867760   51.127602
H   95.826012   76.554352    7.852951
H   36.403732   68.374496    1.429284
H   10.321317   90.908180   84.810402
H   88.134338    0.410074   84.010643
H   12.999744   64.117538   30.558409
H   81.153061   83.757187   29.940168
H   97.468460   78.724792   77.476242
H   43.266148   85.795685   70.027763
H   41.939148   75.082794   44.260086
H   34.146923   85.197998   74.269958
H   30.120342   33.831959   98.264565
H   70.781540   27.035748   61.155144
H   56.437977   33.664154   98.626732
H   73.709213   24.524994   96.160736
H    3.855052   87.328041   23.622845
H   43.260960   10.694439   92.618820
H   85.820969   18.736294   29.982151
H   85.998116   43.566956   86.933907
H   90.593895   46.545006   95.882355
H   44.760880   84.422791   31.969515
H   98.218277    8.623312   66.057312
H   31.956812   82.265251    9.600220
H   49.206047   25.768578   17.788010
H   83.507484   95.862717   26.049892
H   13.669923   13.565336   57.861824
H   94.234566    5.668881   24.511570
H   66.955528   93.335464   27.126381
H   26.474924   53.573662   78.516045
H   98.347404   62.019501   26.196262
H   79.897026   63.894650   41.810566
H   72.942574   57.440010   66.020981
H   89.266068   76.902161   46.567791
H   23.538246   30.174212   43.944500
H   42.207436   82.634567   27.045864
H    5.713495   35.146988   93.904083
H    3.968340   42.427437   17.548096
H   67.400070   28.132111   28.835907
H   64.570969   34.398540   66.421379
H   48.365231   14.096607   82.243431
H   41.430950   33.939159   83.247353
H   13.551675   45.862061   45.754910
H    4.524852    4.294685   56.803959
H    6.658732    7.609180   19.770479
H   39.803848   42.597790   59.167221
H   17.187752    6.462967    0.612289
H   83.633102   67.746078    2.205437
H   20.290024   68.508926   75.880493
H   53.036892   69.317688   84.021088
H    5.943106   30.316643   23.835266
H   71.293472   16.320782   87.334091
H   65.725281   45.623390   99.972260
H   15.471548   33.024040    0.831810
H   15.803873    7.622210   57.076927
H   32.843857   87.160240   97.782356
H   37.617352   56.308708   57.125092
H   76.178467   74.191887   11.979165
H   53.389687   75.117729    4.370909
H   23.784859   39.075897    6.523154
H    6.586013   38.756882   77.503563
H   92.307442   16.693417    1.523482
H    1.013117   48.911140   75.409325
H   67.485016   81.049095   23.363829
H   20.513998   47.894226   96.543983
H   31.596336   52.877132   33.615540
H   70.149117   83.223091   39.573181
