100
TIME:    5.297, STEP:  5297
H   59.107826   36.259377   94.296463
H   54.184669   91.899857   12.097926
H   70.808273   54.991196   61.168682
H   82.365692   14.413769   49.817123
H   47.726303   97.335419   22.081352
H   45.881107   95.469460    3.325464
H   75.353508   19.015903    4.685339
H    3.552544   46.859196   21.840603
H   23.417564   77.008392   66.660957
H   30.086336   92.440437   15.113531
H    7.540985   79.378937   29.515972
H   53.670853   89.202034   15.882845
H    6.054428   41.270775   98.685234
H   92.805473   88.749031   60.345253
H   44.930870   96.878403   96.149719
H   88.542435   48.434097   93.343475
H   98.153786   32.326092   55.595154
H   14.340463   37.084126   15.904554
H   27.771000    0.567151   42.427944
H   49.805069   93.326942   76.977028
H   49.945229   28.884239   13.474995
H   70.208893   51.115829   68.189804
H   15.021306   51.542061   80.796478
H   26.889984    0.195771   13.671460
H   40.132355   66.082184   75.659401
H   22.399607   70.067123   92.312027
H    5.312246   22.286465    5.065888
H   85.596260    3.685741   41.863983
H   26.349495   29.676981    6.780706
H    4.104363   59.738976    4.485271
H   24.524986   97.048218   90.297157
H    0.213169    6.163408    8.894188
H   43.471035   80.928825   74.992546
H    1.911791   88.284355   48.596504
H   49.102661   58.507523   47.277748
H   33.096363    0.312028    2.773165
H   87.850189   10.547554   25.848064
H   45.056622   62.019093   96.236839
H   21.483677   66.004448   30.993250
H   64.274239   16.295647   54.792095
H   73.239380   37.935509   67.140724
H   55.556297   49.590797   51.654049
H   56.867001   95.264481   84.081612
H   41.111866    1.552717   98.649094
H   97.180473   22.899826    9.388865
H    9.748255   63.948994    4.680772
H   83.117477   12.906575   76.312294
H   56.522305   49.927353   96.326302
H   19.867668   93.752808   33.174095
H   36.971745   11.355078   13.185699
H   43.140491   58.252411    9.265845
H   62.556664   72.218063   26.323593
H   18.747051   52.722534   95.227226
H   54.023056   20.776871   65.558372
H   19.039997   22.808455   45.401699
H    0.193104    6.961793   12.304428
H   32.058601   36.704201   59.776237
H   31.629551   76.651268   77.116440
H    8.040503   62.580307    4.829018
H    9.472288   34.933331   12.951302
H   93.839081   32.237415    1.400920
H   10.916018   78.638351   55.683334
H   33.673389   45.825607   70.239258
H    6.774614   70.618149   83.326340
H   42.569839   37.781429   88.855293
H   75.942955   78.943565   59.383308
H   62.580322   31.494179   22.801716
H   14.465907   20.478514   19.429831
H   20.903265   69.177696   28.013840
H   37.702736   14.565477   90.579163
H   53.829262   34.992599   98.605446
H   37.205330   75.727768   44.443626
H   61.617111   56.293495   25.932755
H   13.602558   14.172276   88.424187
H   17.561377   36.191914    2.946128
H   50.884552   47.061272   39.508533
H   47.888561   67.438423   84.728477
H   80.843018    4.362053    6.972235
H   15.524301   37.959766   76.782967
H   39.751343   20.465576   64.579956
H   14.525749   84.081558   96.578697
H   38.766396   78.820999   43.845970
H   52.922867   95.703918   34.403301
H   14.575472   65.434860   79.617615
H   94.408699   17.553802   34.267570
H   29.380611    3.620944    9.623010
H   20.929388   18.217880   76.124893
H   41.218811   81.204330   40.657120
H   65.611191   99.244270   84.868172
H   98.012207   91.341843   13.573030
H   40.797752   59.452991   45.324749
H   70.223259   93.864685   34.456329
H   25.001238   86.457008   28.629719
H   59.201897   34.535961   83.967766
H   65.009361   75.257103   37.804630
H   31.432098   86.559296   93.851807
H   42.151115   71.664696   32.553925
H   26.308516   61.338470   71.269768
H   56.376190   59.683582    1.356865
H   68.226791   42.703945   87.463806
