100
TIME:    4.782, STEP:  4782
H   93.935707   83.487617   94.767960
H   68.408150   63.995117   79.626709
H   61.952904   17.940166   67.213539
H   82.279251   35.632744   78.046028
H   52.339111   56.055893   36.044113
H   53.869045   96.027397   52.324169
H    2.346468   84.241226   64.411636
H   44.030525    2.306449   69.127357
H   36.077248   26.523697   99.076347
H   44.160240   85.045799   94.946411
H   55.445038   58.656666   79.122635
H   73.326469   63.387596   52.540840
H   38.917740   72.413124   49.858398
H   18.304760   90.336403   21.152102
H   38.667824   42.879639   20.905457
H    9.249733   93.477737   36.093689
H   39.567207   98.263748    8.712675
H    3.327877   62.140240   33.756786
H   19.749664   78.964661   15.297243
H   63.678856    4.264879   41.913399
H   80.506065   80.154327   27.452904
H   20.835342   50.432159   12.046768
H   21.897438   55.730522   95.530746
H   74.741867   94.034241   51.920738
H   58.552155    6.922318   71.855995
H   24.747267   85.288605   40.740513
H   49.722115   43.695446   94.848427
H   29.050850   79.647308   24.839029
H   15.151376   82.952599   31.123707
H   84.356766   72.485100   63.543831
H    4.255958   50.866245   31.042320
H   67.695625   20.391434   56.570351
H    7.194407   18.608389   28.597281
H   80.152130   35.480896   70.293205
H   61.903793   97.437424   15.919296
H   88.328995   59.975483    4.393109
H   38.455093   29.409382   85.268295
H   66.341194   71.441994   59.892757
H   43.223598   77.226067   80.901123
H   12.782843   64.509422   14.271753
H    8.436237   20.266172   55.007549
H    1.841605   26.476149   27.462343
H   52.431004   92.176178   46.882339
H   73.996017   92.909210   48.294289
H   41.852497   43.217400   65.319237
H   16.393353   54.126148    2.587198
H   79.094040   84.898888   71.369438
H   56.494801   44.623016   64.460991
H    4.815036   36.404247   53.719559
H   26.170544    3.516447   49.204109
H   43.179783    7.972019    3.836758
H   37.528053   20.005144   60.133827
H    8.064454   49.736389   25.137503
H   65.948631   29.181297   42.832237
H   60.045105   77.673103   41.020710
H   99.549576    7.503523   29.836243
H   99.410843   51.564201   10.795496
H   69.977921   25.286921   90.381210
H   67.421837   40.820740   44.366585
H   43.455593   95.347809   27.599129
H   61.352966   56.185513   41.553139
H   29.192404   83.431900   78.984528
H   98.709908   80.967819    5.554375
H   71.411903   67.812744   97.306213
H   22.127481   78.914154   40.896229
H    7.579933    4.545660   28.932486
H    3.899300   13.689416   97.936447
H   50.040367   91.024429   94.809853
H   95.235428    6.182297   60.315285
H   27.269983   88.663086   91.663605
H   70.182335   70.032654    4.783307
H   79.668976   92.819519    6.737002
H   95.195526   81.768837   39.138588
H   24.938122   46.765553   19.023216
H   92.731087   35.457165   63.906094
H   38.708153   14.053652   74.160751
H    1.129128   12.073986   75.620735
H   56.647381   38.037136   78.532326
H   90.827705   39.472485   71.038567
H   65.006866   48.516346    8.947659
H    4.448318   78.753647   65.797829
H    0.123701   75.457657   86.909325
H   20.346384   87.091248   85.357361
H   79.143311   21.365171   26.655296
H   19.485483   49.768806   84.191200
H   41.234821   84.705696   73.859756
H   86.533684   55.662567   51.567780
H   32.928329   22.435980   46.012535
H   54.923935   27.917723   89.080208
H   43.545765   12.530083   95.163055
H   19.721855   31.646454   34.448895
H   32.118473   55.131241   24.645269
H   91.989082   71.004494   88.803940
H    9.425714    3.295812   49.243710
H   73.912788   21.386925   25.971066
H   88.895157    6.896063   20.452660
H   83.029869   42.109722   62.171768
H   24.418600   56.953552   79.513100
H   80.909729   57.463619   44.494858
H   36.239155   55.917637   37.075092
