100
TIME:    9.543, STEP:  9543
H   71.967926   46.882912   90.409134
H   36.921127   21.984783   79.822197
H   43.806271   60.465462   11.319647
H   83.078369   39.479668   17.077829
H    9.685766   37.670517    6.956547
H   80.035034   90.869453   23.820789
H   52.820393    5.726207   36.728207
H   69.825317   14.193224   31.987167
H   19.042717   68.771393   99.388954
H   14.104624   53.408344   81.367775
H   12.588409   50.224319   20.517187
H   91.610527    2.032011   13.648010
H   35.224304   84.363380   76.750122
H   82.569489   75.661690   83.466637
H   96.515266   17.605019   91.978050
H   17.819653   77.063217   40.888733
H   56.715736   13.166780   42.125290
H    5.138419   30.476387   68.717361
H   93.903671   78.694443   66.122299
H   35.410213    3.157587   66.064415
H   97.981079    6.181641   98.229996
H   77.277054   56.752457    6.603653
H   58.329399   17.016653   59.314240
H   32.375256   50.990204   98.327576
H   88.272568   29.352867    7.013759
H    2.609099   44.775864   92.842979
H   39.175392   45.786343   89.313095
H   27.331324    1.874685   82.213676
H   18.674694   14.907774    6.069858
H   66.914040   54.650284   42.029366
H   91.632317   77.794617   54.367310
H   68.308182   88.849197   15.820732
H   42.553871   70.271164   57.505760
H   81.316284   99.163780   69.720085
H   43.456932   37.130959    5.655872
H    2.194486   32.881901   89.425270
H   95.097107   55.050056   60.416401
H   69.560371   84.313011   95.864922
H   42.259579   73.491600   19.524754
H   64.348511   18.798859   88.858109
H   83.055298   83.625717   67.173424
H   95.981682   79.026047   67.146446
H   93.414215   20.734825   90.773827
H   69.997841   72.828224   13.797839
H   28.871679   55.387562   72.734329
H   54.945656   44.928936   21.930834
H   16.300617   43.821323   17.074389
H   56.770077   93.659805   59.043934
H   43.980293   42.098614   63.802177
H   26.090841   75.990013   16.286018
H   44.418613   48.447380   51.612274
H   68.918823   78.219940   47.597633
H    6.813507   77.342285   48.630638
H   55.694176   51.503922   52.922127
H   80.966805   94.907394   81.505753
H    5.481554    2.495414   67.760544
H    1.237706   14.187433   63.606163
H   15.464641   75.668388   67.749290
H   42.915737   41.996422   78.869667
H   29.279369   61.296040   92.184975
H   61.684017   34.777744   70.353981
H   60.218193   39.117172   63.566826
H   21.934536   56.085960   79.078308
H   98.340149   93.747757   68.049896
H   11.100192   98.658699   84.266441
H   15.108114   67.862816   10.441312
H   21.915886   78.287262   27.798752
H   21.165649   63.311836   22.413193
H   32.523926   64.087219   61.713924
H   23.838348   27.964693   81.603073
H   18.991398   46.092342   47.681435
H   87.424278   34.735741   55.542904
H   84.770676   46.273754   17.065800
H   20.132130   45.443256   36.140388
H   22.166452   42.366802   24.858145
H   51.262161   19.189152   53.805649
H   33.491158   99.828537   59.992348
H   80.319527   26.735176   41.474754
H   19.135679   25.487919   24.157412
H   31.527130   89.166420   98.783363
H   97.635704   28.009073   50.355537
H   57.394005    6.364636   88.636406
H   21.488932   66.710976   38.770397
H    6.692716   28.774712   91.812126
H   87.666870   51.947197   22.667070
H   31.658939   59.586281    4.478021
H    4.510267    9.498158   78.590202
H    9.505993   41.436623   96.634476
H   53.729496   62.833229   50.141365
H   22.609213   16.650536   65.353409
H   14.562149   88.724579   34.992821
H   84.384262   13.204433   15.359887
H   97.178329   13.851515   56.979424
H   67.985390   92.015671   72.683037
H   91.596985   94.925240   35.372597
H   82.134247   18.889574   74.540482
H    5.124192   15.331742   88.361145
H   19.857111   58.646656   87.300316
H   54.106468   78.011177   45.711811
H   31.963852   33.746380   78.432816
