100
TIME:    2.662, STEP:  2662
H   37.301666   77.902397   96.708878
H   27.221931   49.074913   45.918110
H   25.512167   65.418961   92.089638
H   81.923416   22.976175   94.249451
H   71.327759   86.128555   93.527634
H   86.740242   98.324150   42.372776
H   13.455481   41.089050   98.624718
H   10.658348   18.899195   63.779041
H   88.190895   30.353043   32.523243
H    2.096346   54.605736   11.929675
H   52.642273   73.353928   83.331909
H   54.241211   57.122940    3.445421
H   73.931664    0.652514   60.547012
H   23.274406   96.870827   59.820576
H   12.879967   32.246307   22.811926
H   94.490540   78.900787   12.072096
H   10.044967   58.040054   15.720712
H   58.030548   65.247566    7.257332
H   86.727013   90.026810    3.608187
H   20.800552   49.282986   97.574013
H    6.309796   91.206512   84.991486
H   17.588882   47.617828   92.584412
H   50.202492   72.972343   56.187637
H   71.712860   68.608215    9.369830
H   34.374748   75.051941   56.202332
H   34.453007   48.289135   39.662331
H   32.531250   31.820356   52.790897
H    7.930513   80.692879   54.764950
H   69.053329   90.609688   31.337297
H    3.066899   24.955795   95.010368
H   20.820967   60.761326   98.769981
H   33.837379   78.962761   52.829384
H   57.866245   73.717812   37.610939
H   90.576591   29.766251   59.605026
H   14.601083   57.693359   86.825890
H    4.004568   93.598442   11.489129
H   35.119644    7.047060   18.220335
H   53.964401   10.231884   10.292131
H   32.709000   23.415812   86.344894
H   12.463140   62.976669   47.475239
H   53.321682   47.522083    5.061185
H   92.375755   31.330078   27.863787
H   34.170200   79.463165   93.752831
H    9.372789   57.387398   41.010178
H   25.747164   26.862484   83.905251
H   43.744122   13.690357   93.978432
H   62.530109   69.606232   51.011833
H   56.381580   22.791101   33.287376
H   42.841690   11.983212   38.285835
H   81.714012   71.263100   97.481720
H   43.341526   12.644491   81.484543
H   34.500172   16.725105   99.305443
H   64.100166   37.443909   48.265320
H   15.048901   63.778160   49.282745
H   28.838425   91.870117   22.993605
H   96.896988    9.734316    2.006042
H   65.009499   12.736241    9.165825
H   27.838470   25.494717   44.989334
H    0.224084   51.245037    7.119638
H   83.354111   32.398258   87.896980
H   27.621996   54.775265    6.846063
H    4.434544    3.165201   74.908478
H   54.795391   25.625078   50.934738
H   25.833738   56.275116   54.869846
H   37.981380   48.234943   43.468224
H   37.814247    9.936958    3.583450
H   73.991158   40.394672   95.582962
H   96.483070   69.779724   93.461594
H   89.575493   58.511986   93.275948
H   84.316223   82.034248   96.127716
H   37.502724   14.276986   30.217163
H   54.472382   63.178497   51.521561
H   33.424805   86.633232   93.491692
H   71.609367   80.923325   44.997978
H   90.517479   32.432568    3.195178
H   88.588676   78.182610   16.811092
H    8.646944   95.822159   38.128666
H   57.045925   76.659752   61.453884
H   89.165619   45.699596   47.380356
H   68.975838   63.977535   91.587601
H   62.975475   56.821270   39.089802
H   41.057007   61.612442   64.182716
H   86.225296   51.689758   83.442291
H   33.292057   39.952362   20.285492
H   22.712223   82.374939   89.701469
H   90.024109    6.833279   26.640713
H   44.943687    9.803848   50.477783
H   98.808105   92.168396   68.061104
H   10.926388   45.955925    6.421269
H   30.981647   99.751541   19.378384
H   32.962646   17.172554   89.678299
H   75.252121   95.705376   84.245995
H   56.082920    7.396818   24.855034
H    4.519552   74.703636    6.304076
H   10.565708   11.283287   77.257011
H   13.791915   90.612312   29.953369
H   51.305130   20.447048   84.095360
H   16.638754   38.903015   13.442032
H   81.902000   48.325130   22.067314
H    4.560501   10.327578   41.297272
