100
TIME:    5.559, STEP:  5559
H   41.389565   12.233327   94.056595
H   46.948647    6.096801   28.617847
H   75.313797   73.840836   58.092373
H   82.409668    3.618702   35.455017
H   45.379593   18.335787   14.978184
H   41.817341   95.185616   29.272448
H   61.621403   36.708179   25.174120
H   82.959854   69.525223   97.784340
H   16.977104   51.818237   50.168343
H   22.927271   96.202370   25.373892
H   83.170395   89.921143    4.278843
H   43.670349    2.334737   97.233864
H   89.335648   25.427067   72.651543
H   79.832603   87.941475   80.282661
H   48.117119   73.475266   83.556641
H   78.008224   25.518692   71.595428
H   77.085365   49.654568   79.446045
H   19.943235   24.336529    6.822546
H   31.851757   11.558948   56.230358
H   42.746948   87.762001   94.815224
H   34.397774    2.800619    6.363903
H   95.327087   51.463638   45.878067
H   11.522729   49.411232   73.300598
H    2.546356    3.330050   94.213196
H   30.761639   45.303802   77.594337
H   21.205263   62.322945   67.673569
H   82.720413   11.395239   10.264671
H   63.488461   15.915016   50.525223
H   32.046364   53.447819   94.395935
H   14.150341   53.254539   25.312866
H   34.836594   20.542095   69.568550
H   16.755711   98.924881   84.639595
H   61.926891   61.759361   98.595573
H   12.982207   64.273552   37.558571
H   42.590240   38.702408   63.230980
H   55.871845   20.833462    1.949216
H   12.979783    0.951868   46.492718
H   34.228573   57.223728   14.725380
H   10.424008   60.295586    5.604180
H   39.597782   91.768135   75.405663
H   55.333221   46.924568   73.313332
H   32.009239   61.350334   63.961285
H   59.123760   96.835617    3.007009
H   24.383060    5.950527   24.265818
H   74.452965   12.563340   31.809542
H    6.367257   68.946243    5.745226
H   85.164352   27.155743   78.826912
H   56.536297   52.625870   12.537299
H   27.525459   72.052734   22.722729
H   42.466724   15.342886   94.861130
H   43.120502   32.958313   12.027827
H   75.289665   47.906101    9.123047
H   24.182064   54.241699   80.011589
H   47.956390   16.501221   77.120018
H   98.178642   45.769436   47.630474
H    0.519441    6.686194    3.385330
H   48.667473   29.144356   84.694542
H   12.121173   51.908867   70.368149
H   28.703321   73.650398   84.715950
H   92.182617   55.072262    5.499397
H   10.366312   20.053131   80.972252
H    1.617988   76.199692   43.827850
H   51.461613   27.947206   52.273132
H   24.765743   72.045364   76.214249
H   52.970123   16.855656   13.254424
H   59.847801   65.918724   74.874794
H   41.559875   40.551258   35.451492
H   96.367455   35.463047   31.954947
H   33.962086   50.352043   11.581006
H   43.009819   27.743290   90.027466
H   45.509834   17.166397   95.463173
H   15.602453   67.032547   63.627083
H   44.534500   43.334618   19.214447
H    7.835728   97.590355   72.856743
H   30.193434   36.565708   22.808147
H   57.079147   63.854042   21.879648
H   71.676842   44.729206   89.361931
H   93.152252   87.231178   21.441988
H   28.087414   37.190189   79.705360
H   26.904800    6.193765   42.008362
H   19.652788   86.792068   12.237672
H   58.429062   80.521774   21.930555
H   69.495094    0.085503   59.355587
H   32.600533   87.854538   55.687466
H   81.651711    1.165241    8.869671
H   23.349926   13.244655   27.817184
H   38.427773   99.168190   88.618027
H   45.433006   60.237797   37.939552
H   71.048203   84.656288   82.725349
H   74.848938   80.563766   22.938753
H   51.519859   73.600571   50.857708
H   89.608604   13.569417   39.447586
H   41.796005   94.316689   48.890583
H   84.523598   50.431225    1.634032
H   60.479851   51.788960   43.825321
H   53.072205   76.212982   80.319244
H   21.355059   86.700432   17.486206
H   27.269987   63.569244   67.076073
H   43.895050   60.812962   79.412804
H   84.501846   35.981640   62.225536
