100
TIME:    8.660, STEP:  8660
H   31.681164   27.857801   91.217545
H   61.308182   74.137680   24.145302
H   28.628359   96.939529   21.684906
H   82.930161   75.858147   65.480171
H   17.598085   66.894440   30.896244
H   93.724121   91.826073   36.374641
H   99.100273   46.103287   67.676445
H   39.227371   37.801731   13.060761
H   40.748543   53.669006   54.972004
H   38.224709   40.729771   46.794746
H   94.722931   14.696250    5.574832
H   25.312836   57.771618   76.500954
H   91.530106   37.808525   64.499344
H   26.289618   78.383339   16.269451
H   85.790352   96.478951   34.441246
H   53.323700   54.293724   14.185043
H   27.721443   54.761402   61.742317
H   86.250778   73.443413   99.329178
H   80.147217   41.651699   19.604694
H   59.197697   21.909346    5.945641
H   50.380043   94.086456   22.197348
H   92.622978   55.580261   81.799301
H   70.118721   24.194666   84.577072
H   14.418676   40.426971   63.908390
H   19.853172   99.378036    0.495770
H    6.774239   70.806686   75.938080
H   15.317091   82.491531   71.797531
H    1.836603   60.659229   53.027519
H   99.473808   34.794613   47.808739
H   33.055107   76.504318   71.833832
H   56.882755   98.615150   24.227440
H   12.554903   13.246708   97.564522
H   80.355972   34.875069   77.958145
H   44.008133   80.085419    6.919941
H   65.432228    3.986493   51.934887
H   25.436281   63.720673   92.200813
H   10.406026   87.386482   90.839561
H    6.059305    0.467908   33.553223
H   79.531242   92.731773    5.094345
H   47.517921    1.462619   19.384974
H   43.401474   53.326164   46.370327
H   70.396240   75.563354   22.069603
H   85.815155   15.436546   26.994137
H   26.374073   58.004639   27.463490
H    5.465337   90.218254   97.170341
H   66.338890   28.087830   18.343512
H    9.397054   95.797798    8.594711
H   56.716183   84.565186    4.409204
H   18.171783   15.229477   99.021973
H    7.557261   62.544178   78.025993
H   42.906956   33.576790   44.717712
H   26.005217   60.156055    5.560895
H   88.501198   72.222351   99.912735
H   76.144226   65.912949   13.958293
H   51.273018   17.525610   74.001007
H    4.381779    3.424244   97.819946
H   45.257645   39.665962   79.625465
H   81.214539   59.057167   90.492577
H   73.272636    4.683925   46.657944
H   87.548286   93.423965   17.299583
H    5.979663   75.840210   39.193996
H   91.557579   47.336014    3.516279
H   61.989338   16.339975   39.628265
H   37.706432   88.937714   92.019272
H   76.054489   69.185089    2.036600
H   69.351448   11.759067   58.231144
H   92.760086   47.759869   85.166489
H   82.160233   12.811841   80.200684
H   88.514954   27.533958   17.091949
H    5.905006   83.613541   83.475891
H   47.034946    6.173197   58.271614
H   60.136375   64.054100   90.820602
H   42.343338   89.952141   39.708035
H   39.567669    1.329047   88.606239
H   79.632324   41.066608   57.908649
H   30.384958   62.599068   13.221639
H   53.295731   76.255859   44.329391
H   38.838673   84.469170   92.706238
H   76.790962   28.081570   14.301828
H   74.830956   37.268669   74.854515
H   80.349190   18.874033   97.579315
H   91.135788    0.632500   62.507347
H   65.639824   51.944004   54.678448
H   45.943031   53.214333   72.459465
H   30.660843    7.186434    8.263744
H   51.983730   27.149307   43.159973
H   45.536671   73.699608   36.485481
H   95.305656   12.092024    5.787118
H   35.405521   11.997625   57.363167
H    0.677946   52.981857   33.791420
H   78.425560   41.045071   16.345482
H   19.051203   46.793915   98.537315
H   40.576115   87.359123   88.695679
H   84.220749   38.565052   10.729033
H    6.863634   74.020126   15.084223
H    9.202132   53.757751   20.148903
H   75.212364   64.658379   39.144402
H   21.561510   14.957486    5.030497
H   96.170769   74.198174   19.671352
H   77.116623   56.402088   63.495823
