100
TIME:    5.430, STEP:  5430
H   50.113441   24.062901   94.174698
H   50.511421   99.106323   20.483994
H   73.095428   64.559906   59.607044
H   82.388016    8.933830   42.526436
H   46.535034    7.995867   18.475582
H   43.818203   95.325371   16.497145
H   68.382454   27.997097   15.086152
H   93.098999   58.364986    9.628707
H   20.148170   64.221024   58.288910
H   26.452154   94.350121   20.322035
H   95.169662   84.730515   16.704758
H   48.594261   95.868675    6.416091
H   97.567429   33.228188   85.469658
H   86.220009   88.339088   70.466331
H   46.548317   84.998184   89.757050
H   83.194916   36.801468   82.303436
H   87.458748   41.122608   67.702667
H   17.184546   30.613213   11.294222
H   29.842529    6.146918   49.434513
H   46.222130   90.501991   86.032295
H   42.052818   15.643295    9.865166
H   82.959732   51.292389   56.863617
H   13.245311   50.460381   76.991318
H   14.532345    1.786837    3.793571
H   35.375397   55.534477   76.641640
H   21.793318   66.136139   79.804718
H   93.843750   16.757820    7.705020
H   74.373573    9.893730   46.260719
H   29.241417   41.743809    0.493955
H    9.204039   56.447258   15.058079
H   29.759365    8.974545   79.774620
H    8.610762    2.489018   96.581779
H   52.839848   71.197762   86.974236
H    7.531507   76.095665   42.993279
H   45.796738   48.453781   55.376144
H   44.657963   10.729383    2.354892
H    0.607088    5.676441   36.327984
H   39.559940   59.584805    5.622375
H   15.869296   63.106438   18.104918
H   51.747631    3.844406   65.256676
H   64.149612   42.498657   70.274147
H   43.603020   55.560333   57.901615
H   58.012608   96.062042   93.688881
H   32.619762    3.785182   11.652991
H   85.643227   17.652763   20.770353
H    8.031897   66.485764    5.221144
H   84.156540   20.139931   77.588799
H   56.529408   51.297211    4.555556
H   23.755020   82.737122   27.868576
H   39.761181   13.379423    3.883802
H   43.130344   45.412277   10.667920
H   69.020363   59.876827   17.592018
H   21.506046   53.493713   87.503258
H   50.943413   18.606407   71.427452
H    8.449982   34.464024   46.533100
H    0.358763    6.821890    7.776794
H   40.489822   32.866570   72.425606
H   21.726494   64.091194   73.690781
H   18.529730   68.199944   94.618889
H    0.695812   45.156528    9.168465
H    2.228767   26.052273   91.030693
H    6.196048   77.400406   49.665092
H   42.703289   36.750046   61.119049
H   15.907523   71.342651   79.716003
H   47.849373   27.158669    1.240886
H   67.772514   72.331718   67.247307
H   51.909637   36.091885   29.223305
H    5.278474   28.085283   25.788000
H   27.532362   59.621162   19.671913
H   40.396790   21.255005   90.299103
H   49.606041   25.943420   97.010323
H   26.239098   71.313782   54.181793
H   52.945404   49.715134   22.522316
H   10.675121    5.754787   80.521629
H   23.973833   36.381664   13.028725
H   54.029137   55.585846   30.559729
H   59.964619   55.910610   87.080574
H   87.091599   95.665703   14.317481
H   21.901768   37.569103   78.266472
H   33.229805   13.220649   53.121857
H   17.128336   85.457504    4.527759
H   48.747566   79.685211   32.721695
H   61.335823   97.928162   47.069920
H   23.725615   76.815842   67.469513
H   87.932823    9.234406   21.374672
H   26.319233    8.506263   18.859070
H   29.812155    8.547676   82.466827
H   43.358330   70.560364   39.277069
H   68.371201   91.838921   83.780403
H   86.253754   85.870529   18.327322
H   46.240654   66.634460   48.133465
H   80.063911    3.867551   36.990059
H   33.526825   90.446846   38.914814
H   72.055855   42.604931   92.935768
H   62.710030   63.344357   40.860935
H   42.417343   81.307159   86.982224
H   31.594099   79.297340   24.905045
H   26.796591   62.470886   69.140907
H   50.040344   60.256893   90.217262
H   76.488556   39.291477   74.652084
