100
TIME:    8.543, STEP:  8543
H   39.593498   38.587151   91.324661
H   64.539536   67.798157   16.768085
H   26.617243   88.521942   23.058231
H   82.910522   80.678398   71.892891
H   18.646490   57.516376   34.068527
H   95.537964   91.952827   24.787571
H    5.232229   38.202538   58.526890
H   48.423340   27.680094   23.803612
H   43.624626   64.918045   62.337170
H   41.420357   39.049824   42.213722
H    5.605972    9.988694   16.844858
H   29.778709   51.906979   84.829277
H   98.990784   44.889832   76.126862
H   32.082405   78.743965    7.365376
H   84.369270    6.929947   40.067551
H   58.027908   64.526939   23.897362
H   37.129860   47.023113   51.091347
H   83.749603   79.136665    3.384830
H   78.324448   36.743076   13.441020
H   62.349606   24.394007   97.979805
H   57.322990    5.734019   25.372911
H   81.406075   55.424942   91.762939
H   71.680840   25.145773   87.924469
H   25.289682   39.027313   72.597351
H   24.037418    8.656967   99.631935
H    7.326113   74.255844   86.947891
H   25.406145   87.354630   69.476669
H   11.708523   55.198063   49.159714
H   96.929787   24.179678   53.339531
H   28.569042   79.400040   62.532532
H   52.277630   88.123070   33.484108
H    5.167602   16.479145    8.395729
H   72.115128   43.435478   67.417862
H   39.064697   90.807800   11.848673
H   68.344017   12.844994   44.816090
H   15.265997   54.555946   92.568581
H   99.184258   91.671150   81.620384
H   10.894955    2.609182   25.297203
H   84.469322   95.281151   16.432201
H   58.537552   12.415971   10.179631
H   51.397736   49.311966   43.613857
H   80.256332   75.104538   16.096508
H   84.808258   14.734709   18.543522
H   33.844570   56.039940   16.024319
H   15.614170   94.833199   87.158501
H   67.849236   25.856678   17.868181
H    8.482322   89.435066    7.471154
H   56.709042   83.360123   97.170006
H   14.752083   24.919075    3.689180
H    5.101387   60.763363   86.206139
H   42.914989   44.872246   43.484085
H   20.318659   71.012650   13.241422
H   86.075005   71.543945    6.707941
H   78.854279   67.821411    8.795714
H   60.588600    7.272121   73.006607
H    4.236055    3.547317    1.802916
H   37.840706   43.041924   68.497826
H   89.926697   70.106255   93.506126
H   64.044533   99.739967   55.640572
H   95.269615   84.431519   20.627342
H   98.599136   81.281738   48.315876
H   95.710136   48.425034    8.810293
H   54.045742   24.324186   47.651306
H   29.671917   88.300369   95.195282
H   71.410980   78.529236   91.140991
H   76.538979   17.575340   51.313190
H    2.147166   43.715321   79.517868
H   90.242188    6.120203   74.607407
H   82.684235   35.940834   24.430336
H    3.528701   77.736404   83.724045
H   50.751003   14.134397   59.674843
H   69.771164   67.938866   82.244125
H   49.971832   95.740013   42.708195
H   42.142933    8.733837   95.558113
H   73.996201   40.894329   49.037601
H   27.618670   55.100006   21.094191
H   42.669754   86.381958   42.254005
H   33.342693   92.119087   86.243530
H   71.179832   28.425236   12.996120
H   80.568840   43.642113   84.934196
H   78.058678   17.663614   90.586380
H   82.355789   99.873108   72.295891
H   58.239151   49.987339   43.535633
H   37.894104   43.202492   83.146141
H   36.357666   14.505405   19.605324
H   54.676823   22.851696   35.035172
H   37.722507   82.206459   30.906487
H   93.423973   21.454453    7.000312
H   32.977543   18.511797   58.320076
H   11.022500   57.795860   29.609152
H   73.637444   34.727863   13.874656
H   10.394388   37.994278   96.307503
H   33.076160   83.849266   79.647888
H   72.912796   31.466785    2.840119
H    8.886738   84.499710   12.395817
H   99.538330   58.378052   26.192070
H   84.499382   57.943947   45.873116
H   21.787348    9.168275    7.379477
H    1.744367   73.692940   29.471638
H   69.848755   59.404034   74.766327
