100
TIME:    1.822, STEP:  1822
H   94.108307   54.934616   97.477921
H   50.588020    3.530270   92.931511
H   11.073385    4.986430    1.947121
H   81.782425   57.583946   40.293324
H   78.851562   18.798847   16.302952
H   99.762703   99.234184   59.185261
H   57.478039   84.367836   32.935631
H   76.680687   46.227581   40.904320
H    8.839760   11.115580   85.398766
H   25.049074   42.544579   79.038109
H   30.777023   39.554493   64.244232
H   86.299438   15.017878   63.237038
H   27.365322   51.473900   44.036774
H   64.866814   99.459938   95.894310
H    2.661674    7.279034   63.192360
H   28.266388   52.371353   81.799576
H   77.581390    2.488766   39.243286
H   40.079803    6.096725   36.381149
H   73.640465   54.790146   59.350925
H   43.429642   67.119492   40.382851
H   56.156570   74.831970    7.792496
H   37.053165   46.504768   64.116127
H   61.417702   79.804008   80.220230
H   49.757988   58.533756   71.757477
H   64.418694   41.672691   50.005127
H   38.304630   73.317459   18.396517
H    4.965302   66.740799   36.121891
H   78.806473   41.484509   26.997519
H   50.788559   14.398238   71.045494
H   70.857002   45.745590   28.231987
H   87.774055   85.432953   65.234924
H   80.799438    2.174517   30.592384
H   98.696243   35.175591   61.937103
H   55.085258    6.747332   94.993820
H   35.483162   21.191078   35.675262
H   30.970913   27.611231   14.376245
H   54.551933   37.811378   52.031742
H   88.684837   25.606335   51.014080
H   68.811691   41.613670   67.497803
H   91.581459   41.613811   81.385757
H   10.728348   18.700720   85.270065
H   67.870209   93.629341   88.400803
H   26.934790   74.425934   33.078606
H   63.012184   43.307503   58.878742
H   98.610893   60.001827   12.023443
H   54.581219   97.668648   90.569008
H   55.318714   24.027094   43.192085
H   56.336720   14.142572   81.312981
H   18.289991   81.551170   71.795395
H   64.102928   58.481403   56.230549
H   43.405613   93.740837   72.627731
H   93.679314   94.670868   54.452061
H   46.674973   32.573303   97.050346
H   34.499279   77.480049   12.216585
H   95.710083   18.230867   15.867109
H   95.845963   10.617113   30.601624
H   11.759434   36.974129   29.274908
H   90.387299    4.821910   66.625076
H   33.973953   15.752248   71.608307
H   38.785175   67.833893   11.787843
H   74.633743   93.841133   72.337517
H   34.244812   10.985407   12.913819
H   97.817337   82.906319    8.561904
H   68.153992   51.705719   77.674538
H    4.639506   15.323638   65.241486
H   89.417030   51.695992   53.916210
H   41.386459   11.354869   55.028759
H   54.507805   21.739491   53.304737
H   47.711426   18.869019   45.960518
H   67.294739   39.784485   97.896515
H   64.175697   71.431831   40.295414
H   23.735170   91.056305   90.019981
H   88.193481   28.182842   15.029301
H   90.092033   34.079552   94.921684
H   50.016762   31.236189   39.518291
H   68.734550   24.345335   73.331261
H   32.380432   68.629135   23.271437
H   17.581203   31.584169   15.061399
H   48.887070   48.164890   38.006462
H   10.171144    9.723486   63.954262
H   46.537182   48.131084   88.885674
H   78.030167   56.126602   34.423416
H   33.080700   37.667542    3.436440
H   75.507942   68.072487   97.010345
H   63.613220   34.917198   71.130005
H    9.355495   75.981087   68.308449
H   88.841972   70.878677   10.423237
H   85.285767   59.420837   76.802559
H   93.493355   92.726555   13.293173
H    5.248688   34.313568   89.350014
H   98.586250   71.813156   71.939041
H   13.096760   32.537167   68.237083
H    2.187586   82.224838   59.870071
H   23.330753   23.749998   49.666122
H   25.091007   86.525818   57.954033
H   44.411331   23.782160   73.340210
H   17.980671   72.241371   32.404510
H   13.554904   31.750916   26.883957
H   21.916756   44.704220   92.430923
H   52.393723   31.902859   22.201218
