100
TIME:    7.912, STEP:  7912
H   82.266106   96.453209   91.902359
H   81.966751   33.603802   76.982864
H   15.770967   43.124527   30.464798
H   82.804611    6.675419    6.478329
H   24.300707    6.938952   51.178009
H    5.322309   92.636436   62.298828
H   38.302219   95.593048    9.181873
H   98.018692   73.089806   81.740410
H   59.135811   25.586704    2.054235
H   58.655006   29.989595   17.506104
H   64.300064   84.599197   77.625153
H   53.863892   20.278027   29.743782
H   39.227821   83.082870   38.834141
H   63.326225   80.688881   59.347881
H   76.705147   63.293991   70.412140
H   83.398468   19.716675   76.275665
H   87.870979    5.288995   93.648926
H   70.260361    9.841063   25.257336
H   68.493958   10.270078   80.196350
H   79.352707   37.793148   55.018349
H   94.767433   68.553467   42.497768
H   20.911486   54.587280   45.498383
H   80.105598   30.275248    5.977927
H   83.919281   31.478731   19.459583
H   46.605293   58.700035   94.971840
H   10.301632   92.857712   46.328316
H   79.818771   13.583833   56.957180
H   64.949089   25.745108   28.300436
H   83.209465   66.930527   83.167992
H    4.374964   95.017136   12.370052
H   27.441881   31.540318   83.406822
H   65.325798   33.911175   66.810600
H   27.667215   89.603157   10.572400
H   12.402339   48.635078   38.430573
H   84.047768   60.620598    6.423537
H   60.414265    5.130399   94.552010
H   38.662807   14.780554   31.899870
H   36.974907   14.157156   80.768959
H   11.102841    9.028795   77.580894
H   17.971828   71.489044   60.535309
H   94.522873   27.662741   28.747770
H   33.433769   72.630066   83.881554
H   79.377899   10.949585   72.964699
H   74.134903   45.444969   54.328175
H   70.347572   19.726200   33.161652
H   75.994774   13.823714   15.304647
H    3.549325   55.119820    1.411389
H   56.670528   76.861023   58.127270
H   96.307869   77.177864   28.860538
H   91.854248   51.159138   30.324974
H   42.958317    5.790697   36.830933
H   89.651413   29.563597   54.663361
H   72.990150   67.885193   43.354897
H   93.470032   78.114059   80.951431
H   10.829475   51.975304   67.643646
H    3.450145    4.211067   23.283646
H   97.839233   61.249031    8.484506
H   36.911545   29.696905    9.759482
H   14.276733   73.079216    4.081566
H   36.908188   35.931004   38.574486
H   58.795757   10.627480   97.514931
H   18.105598   54.298294   37.361351
H   11.205806   67.382355   90.920868
H   86.342827   84.863068   12.326892
H   46.364395   28.925688   32.379501
H   15.301575   48.944328   14.003480
H   52.774109   21.901302   49.053936
H   33.829918   70.033012   44.441956
H   51.236267   81.280479   64.007446
H   90.713356   46.042782   85.062378
H   70.790672   57.069885   67.242683
H   21.733719   88.890038   35.992710
H   91.113541   26.952723   58.888546
H   56.031750   48.668598   33.048767
H   43.599670   39.965199    1.194955
H   12.699891   14.657383   63.550781
H   85.361046   40.997185   31.061312
H    3.700097   33.376339   51.390842
H   40.921768   30.278683    5.954226
H   11.513612   78.015129   39.295265
H   65.705574   11.135629   52.872345
H   35.006775   95.781082   25.086617
H   18.325876   39.434727   83.442032
H   94.482552   89.205933   40.777966
H   67.081558   53.976650   80.773399
H   69.199387   99.674011   91.216385
H   95.579369   28.085625    0.817950
H   83.275749   71.948792   13.542831
H   19.880833   53.644524   63.480843
H   66.812622   83.754898    7.052913
H   47.814350    0.657620    0.548771
H   63.706776   90.537704   84.281761
H   92.628052   64.920036   30.851686
H   11.930490   93.184776   60.292782
H   19.798004   41.021217   97.896637
H   47.420364   83.296082   58.783852
H   34.584618   21.732609   82.162163
H   23.005327   77.944542   20.047907
H   31.803459   70.968132   82.324501
H   30.656054   75.597458   35.552280
