100
TIME:    9.538, STEP:  9538
H   72.306061   47.341438   90.413712
H   37.059219   21.713825   79.506950
H   43.720325   60.105736   11.378345
H   83.077530   39.685661   17.351896
H    9.730570   37.269745    7.092112
H   80.112549   90.874870   23.325623
H   53.082424    5.388568   36.337200
H   70.218307   13.760666   32.446266
H   19.165627   69.252121   99.703667
H   14.241209   53.336552   81.172005
H   13.053497   50.023132   20.998812
H   91.801338    1.781396   14.003902
H   35.543137   84.666039   77.247025
H   82.817062   75.677101   83.086159
H   96.454536   18.051643   92.218529
H   18.020706   77.500534   41.303772
H   57.117805   12.836075   41.670120
H    5.031493   30.719688   68.890701
H   93.825775   78.484711   65.858856
H   35.544910    3.263769   65.723991
H   98.277786    6.679411   98.365723
H   76.797699   56.745819    7.029445
H   58.396156   17.057299   59.457291
H   32.839848   50.930389   98.698898
H   88.451401   29.749405    6.976852
H    2.632686   44.923264   93.313484
H   39.606567   45.994205   89.213913
H   27.753210    1.641303   82.048424
H   18.565975   14.454140    6.306202
H   66.722313   54.774033   41.631874
H   91.435555   77.346237   54.762894
H   67.992477   88.987366   16.283607
H   42.201660   70.636993   57.055321
H   81.105026   99.622002   69.930733
H   43.581367   37.509529    5.351655
H    1.759858   32.490246   89.440987
H   94.617523   55.233162   60.022419
H   69.767052   84.404488   95.512062
H   42.470646   73.600548   20.009277
H   64.819473   19.266960   88.464737
H   83.397018   83.454132   67.055626
H   96.403053   79.006439   66.891167
H   93.371185   20.704823   90.412651
H   70.317055   72.744301   13.308986
H   29.305391   55.584820   72.306473
H   55.010162   44.833569   21.910521
H   16.261517   43.549374   17.026381
H   56.769772   93.608307   58.734562
H   43.834152   42.512699   64.001648
H   25.985899   75.913872   16.635616
H   44.390766   48.927994   51.602890
H   68.675827   78.683884   47.925850
H    6.709795   77.313293   48.921051
H   55.809952   51.585518   52.701485
H   81.364906   94.469238   81.463257
H    5.475327    2.500673   67.930756
H    0.920735   14.331715   63.130623
H   15.836946   76.140572   67.878075
H   42.521374   41.785126   79.253502
H   29.609303   60.911709   92.327187
H   61.368580   35.010250   70.743767
H   60.395653   39.163712   63.793076
H   21.595085   56.427147   79.421173
H   97.996826   93.720520   68.185623
H   10.901732   99.058022   83.800819
H   15.415264   68.111382   10.145663
H   22.317059   78.114380   27.557339
H   21.511032   63.025887   22.174164
H   32.274712   64.446487   62.027531
H   23.736801   27.713572   81.613678
H   19.150185   46.432575   47.741402
H   87.836037   34.901756   55.176426
H   85.096680   46.521061   17.194012
H   20.242184   45.759686   36.437477
H   21.925611   42.359440   24.479040
H   51.143944   18.868698   54.142067
H   33.037056    0.261307   59.903656
H   80.084618   27.062096   41.198608
H   18.895926   25.502605   24.101603
H   31.772320   89.438789   99.214119
H   97.537819   27.957346   50.056694
H   57.018829    6.332178   89.054726
H   21.172674   66.627357   38.294209
H    6.348725   28.346836   92.268822
H   87.910324   52.259964   23.151747
H   31.774029   59.402603    4.130797
H    4.176323    9.861709   78.351784
H    9.425589   41.836708   96.686279
H   53.625736   63.111626   50.182259
H   23.051279   16.856262   65.174652
H   14.357519   88.454575   34.887230
H   84.014313   12.828390   15.264634
H   96.857819   13.701483   56.592766
H   67.530373   91.714462   72.302559
H   91.683426   95.373085   35.257698
H   81.721268   19.087004   74.798737
H    5.521064   15.044810   88.648697
H   19.866762   58.399273   87.400719
H   54.344658   77.989586   46.130627
H   31.653297   33.874668   78.914459
