200
TIME:    0.395, STEP:   395
H   14.234047   61.960583   17.989981
H   29.345806   35.140987   96.189560
H   14.888966   75.922478   52.982780
H   23.067335   78.785439   40.446484
H   13.564468   87.657700   51.429974
H   84.576172   48.608051   60.961506
H    5.604896   55.194153   52.651508
H    6.362090   95.579651   19.570488
H   93.723221   85.182503   43.938194
H    5.404923   72.727715   89.958641
H   17.596289   97.905342   97.859818
H   31.418747   46.160015   20.127701
H   14.978457   92.152000   54.938988
H   97.077393   53.860889   49.734829
H   12.138435   73.137787   42.597218
H   24.782433   19.579971   50.979328
H   91.499054   14.977915    7.906557
H   32.881474   90.618324   40.760872
H   70.182549   24.090391   44.765575
H   90.549377   77.576073   31.462154
H   59.945236   84.495720   18.739223
H   86.578331   54.738976   64.601601
H   90.363678   61.414482   45.417068
H   11.891303   89.472336   91.100052
H    9.983580   18.937891   39.879536
H   18.532785   69.215065    1.837263
H    1.897330   61.906879   55.313934
H   98.067413   76.523514    1.139118
H   17.596893   51.818428   37.430752
H   86.045143   24.916595   93.264191
H   13.159127   57.924931   16.384317
H   29.107430   67.139145   97.419235
H   23.378143   12.320790   75.072426
H   91.296623   63.747025   40.999535
H   40.550159   83.396286   33.040081
H   27.998142   46.387882   81.253860
H   90.713242   71.083549   87.118568
H   25.248064   48.764771    8.198343
H   47.333672   40.850288   47.877010
H   88.596275   39.051090   57.641693
H   80.550430   97.983192    6.669065
H   21.054308   39.856632   35.235134
H   73.911026   84.221252   56.083782
H   36.935959   70.762047   24.291862
H   34.072903   81.024193   49.957405
H   38.878567    9.804650   44.373611
H   82.895065   18.618397   99.577675
H   86.342285   65.548241   42.075455
H   93.074745   22.870129   61.278084
H   56.570618   18.500986   99.154823
H   74.521027   68.534256   21.725945
H   15.212939   38.365826   66.874168
H   56.356510   89.986465    9.956016
H   20.099722   85.454651   83.998505
H   70.638077   72.937782   85.760498
H    3.318665   68.531586   83.723755
H    4.988134   17.332008   47.991917
H   69.102097   62.182644    2.505882
H   24.910507   77.471695   10.875336
H   39.518372   95.118813   64.128899
H   49.917522   12.352314   37.707905
H   92.721642   16.792067   50.254059
H   75.717522   28.417404   79.655655
H   27.881540   65.373474    7.128181
H   73.840019   78.389786   24.267807
H   32.659588   22.582996   35.649399
H   80.385353   19.892515   89.037483
H   96.473427   91.802330   90.340286
H   22.035858    7.947850   60.017944
H   44.344727   44.331535   50.974316
H   58.397167   79.272987   77.427383
H   27.784258   19.747631   43.679832
H   82.413223   28.342770   94.305519
H   12.915026    5.557694   65.084816
H   81.032394    3.380669   60.324623
H   57.231567   13.604389   61.864613
H   94.772446   35.720478   69.953117
H   20.814226    8.792404   42.667320
H   12.708977   36.599060   31.505497
H   65.940544   89.802498   86.910858
H   49.946659   27.482391   98.832626
H   33.451889   65.802963   83.065514
H   10.394983   15.366521   85.744614
H   19.619526   66.928032   98.903412
H   33.388638    0.962902   53.389591
H   29.034098   80.351120   24.556217
H   42.802143    3.107095    2.126670
H   74.042503   12.775456   17.288450
H   70.429794   72.434532   77.729065
H   22.667782   92.994675   53.160259
H   34.745266   36.230858   80.065056
H   82.975754   89.895401    1.749925
H   54.622879   15.113985   91.315346
H   53.077393   88.864990   73.360687
H   29.052465   54.829529   74.395355
H   62.853157   31.174778   21.773884
H   81.408180    8.918055    5.004681
H    2.633648   30.847281   50.061123
H   33.505714   68.225334   53.430546
H   69.899475    0.446162   27.288248
H   16.781706   84.711975   76.238533
H   96.336082   79.001579   65.009613
H   26.392401   31.505482   32.668900
H   29.323936   68.225662   96.317574
H   25.133270   25.435780   30.112808
H   93.559387   19.184124   36.634014
H   73.000793   32.021393   55.537872
H   63.838158   40.225590   12.748034
H   76.735657   38.133114    6.627628
H    9.345885   25.899267    6.295874
H   49.233860   94.719849    0.904905
H   92.217751   67.243103   92.276718
H   54.401951   82.073326   90.563904
H   62.699120   16.055738   70.956940
H   58.677757   88.422958   21.337927
H    7.712852    1.262820   85.926842
H   26.202145   10.625265   85.987045
H   39.984715   34.625740   30.880211
H   24.748810   63.532970   75.879059
H   74.873093   49.768429   55.124866
H   42.172310   22.789440   82.440750
H   11.601151   23.808193   52.747509
H   35.973274   15.285380   28.627224
H    1.793614   61.740948   11.077519
H   72.278389    5.114350   87.686752
H   53.400982   66.593307   22.538631
H   91.533867   49.913651   65.068665
H   72.038284   88.785637   36.311665
H   94.375183   46.873032   81.357971
H   75.257973   23.414682   69.142258
H   54.865860   79.651337    9.334766
H   75.750565   87.588699   12.982266
H   91.931618   90.135895   98.528145
H   93.320274   16.977119   51.615147
H   12.083248   98.567490   49.294350
H   58.229774    1.427922   81.398087
H   69.149330   86.959496   63.054840
H   92.540443   59.381340   80.749298
H   50.364670   46.501259   71.513428
H   43.531906    1.655938   91.150620
H   58.291264   58.510502   19.916855
H   50.102753   45.720356   49.860191
H   50.022800   59.613907   94.156166
H   50.610649   20.916910   80.692940
H   47.587666   64.626503   54.136982
H   51.619358   64.646393   22.422672
H   48.397179   96.099007   46.172066
H   38.420074   67.649002   67.935692
H   69.328949   58.320812   96.403587
H   14.402848   90.367035   84.196495
H   70.756813   63.942318   50.174057
H   40.312122    2.820930   43.294979
H   83.376335   26.042881   98.023308
H   14.007300    4.700540   72.122223
H   19.758873   57.972458   63.557644
H   68.103424   43.913235   58.829617
H   60.933727   65.531822   82.591110
H   48.249760   34.172981   13.355467
H    5.287768    1.150297   96.856705
H   61.941910   50.619507   84.189331
H   55.478489   78.112274   79.294678
H   36.326656   22.253050   34.201183
H   71.891335   27.812044   37.167603
H   16.964130   24.733093   64.567017
H   57.470078   27.347780   11.347529
H   14.584203   59.507446   61.454521
H   72.230804   95.059944   53.864861
H   23.767616   37.984737   54.422169
H   96.179092   27.666145   36.490932
H   33.546413    9.290018   88.657898
H   76.403870    7.477129   35.963066
H   40.808327   59.689983   57.934093
H   40.667767   70.794083   86.062759
H   69.317291   70.830338   77.835426
H   64.233734   93.870544   91.943329
H    5.692908   48.498100   23.435452
H   33.825432   57.763126   93.391922
H    3.103726    9.348679   66.862167
H   71.637642   17.776316   67.321983
H   78.927292   56.117775   88.571548
H   78.587959   90.743881   38.115459
H   22.354050   30.295254   75.274696
H   58.499146   90.004929    9.137774
H   54.856243   25.507256   82.892570
H   87.527397   81.611549   77.758255
H    2.505304   37.531677   84.729958
H   36.749176    1.869537    2.699552
H   82.974495   73.790108   30.950045
H    2.129690   61.864609   68.314880
H   52.432194   57.430149   67.661331
H   55.224846   25.896191   78.194588
H   46.382259   89.141464   22.650110
H    7.543409   21.211531   61.356838
H   32.395512   69.717079   36.437004
H   79.575470   47.332062   21.309263
H   75.706558   10.763785   27.442797
H   10.491582   89.785866    8.698407
H   24.404839   94.325623   42.595394
H    9.846350   12.045597   71.084923
H    6.391108   29.741472   95.595360
