200
TIME:    0.922, STEP:   922
H   30.427435   60.211582   27.001354
H   34.042542   42.834579   17.584194
H    3.843530   98.989182   78.940361
H   40.831253   84.945137   26.665565
H    7.969173    1.014458   43.852982
H   67.431946   34.304443   45.363235
H   13.240188   54.820229   62.852001
H   18.171865   18.335167    0.864552
H   15.124556   77.281845   31.081963
H   86.853500   65.344429   69.171669
H   35.964817    9.162832   14.513512
H   33.597961   60.226402   45.238449
H   27.913021    9.643000   33.339836
H   72.169212   56.084332   75.129509
H   86.695206   77.194664   41.300545
H    9.421598   97.866440   39.610825
H   16.296810   39.658371   82.327103
H   20.368008   15.953643   31.378656
H   87.716782    5.011458   52.523499
H   92.226006   70.338829   11.032901
H   66.269783   10.802761   94.595291
H   74.845955   74.882637   44.293091
H   74.582466   57.582764   32.771996
H   23.053745   94.277061   89.447548
H   32.889587   40.132965   21.074764
H   18.096540   92.603424   84.431694
H   12.103227   72.481300   76.502975
H   10.162526   98.263390    2.525793
H   39.793118   35.799995   34.344872
H   62.230438   39.034748   75.034378
H   12.471087   79.942238   17.028633
H   19.524113   79.490707   10.394524
H   10.644615   23.660307   81.509552
H   73.854866   64.321983   50.210938
H   15.259363   61.620445   29.030706
H   10.775980   34.373337   87.288536
H    5.838861   59.709015   91.074928
H   99.180710   62.396923   84.504044
H   27.829300   21.979710   59.591293
H   83.542267   36.883938   37.055756
H   80.707237   73.364502   24.161331
H   47.285294   28.805471   19.607922
H   64.422195   72.114952   75.652489
H   35.761917   96.357765   43.139263
H   52.079567   97.102936   68.975273
H   31.462328   96.089684   50.105106
H   92.826172   92.798737   11.131370
H   73.512260   65.540199   23.129959
H   13.455726    2.871535   61.658039
H   37.711567   20.879225   76.860092
H   61.984512   61.863930    0.840748
H   95.068138   47.436504   78.204475
H   70.572472   74.919121   16.838978
H   12.256119   96.575882   91.802666
H   48.331284   61.217468   68.716789
H   96.563408   55.547462    0.980648
H    3.484187   19.326271   42.338825
H   74.859726   74.433685   92.993248
H   13.790281   87.652084   23.621128
H   27.329647   92.159584   54.386765
H   48.210739    2.070426   22.310036
H    2.193956   18.040491   54.294792
H   90.236237   39.333908   61.875919
H   40.650932   66.125343   18.894714
H   82.311615   86.246216   45.818348
H   11.986329   43.056816   45.122147
H   60.700050    8.775983   99.925514
H   93.522240   93.000496    0.774047
H   40.780853   15.069499   53.347618
H   41.311115   53.516804   50.946171
H   58.165977   88.387894   91.523926
H   12.973038    5.895674   39.990849
H   99.139297   37.453655   76.658707
H   30.084291   93.973976   80.427773
H   87.449417   11.911571   35.545105
H   70.552116   94.999443   58.420891
H   92.544983   55.339439   62.498348
H    1.295087   18.388788   24.646584
H   16.719961   60.072472   19.818995
H   57.998158   86.863373   61.918243
H   72.313759   18.575556   91.008362
H   56.625141   56.324566   66.773674
H    8.338902   21.147268   70.325264
H    2.434169   84.160713   16.079235
H   14.622063    6.535763   38.454735
H   43.880699   61.912231   13.585873
H   66.421486    4.205246    3.334888
H   69.659950   93.161560   37.165482
H   86.560806   73.717133   79.626831
H   20.028198   16.617277   47.362423
H   12.654385   40.780270   77.720993
H   79.304863   94.519196   13.248966
H   79.658966    9.170399   76.306107
H   29.445673   69.931557   87.831154
H   42.405403   47.700844   96.344307
H   41.028847   42.957413   96.995476
H   88.556969   90.689140   27.701271
H   97.534920   40.653584   56.998055
H   21.564262   62.946167   55.298157
H   79.062630    9.008938   27.416910
H   40.294704   99.282959    1.054295
H   15.931712   86.974609   62.102654
H   37.316620   12.245465   40.032795
H   54.646355   69.198669   17.246117
H   24.434675   18.510139   47.198734
H   14.423536   93.382599   11.960309
H   88.577171   36.947071   51.137989
H   60.732174   60.459717   92.370308
H   90.128578   31.480881   32.110767
H   26.275003   18.551455    8.875147
H   56.167542   90.140282    1.275688
H   13.377718   80.495300   98.279610
H   45.248848   88.188797   79.100914
H   60.913933    4.694345   57.367989
H   41.091255   10.367631    2.859479
H   86.206017   85.847328    9.701460
H    4.534375   18.046091   92.130661
H   37.310955   60.565228   20.346001
H   44.762161   83.318787   49.834118
H   88.780663   60.286556   74.785141
H   47.672615   26.291462   65.171883
H   88.863205   11.323948   68.248734
H   48.678658   93.058670   44.261463
H   94.029526   42.777359   87.999077
H   56.509239   92.066750   70.257057
H   72.707443   81.012497   12.363644
H   78.434456   52.374313   44.715927
H   60.510963   92.918907   40.762569
H    0.860586   27.796864   69.348167
H    0.801419   20.916828   78.120461
H   76.139336   60.834503   29.474407
H   55.522469   92.815598   25.410221
H   90.210762   15.775221    2.449127
H   67.479294   30.488651   58.100521
H   38.117298   89.038452   25.077728
H   44.193542    0.751567   73.634132
H   70.021820   88.302406   89.289848
H   97.035576   42.926662   72.422447
H   64.139557   53.871185   71.388786
H   43.817375   76.381767   76.507263
H   84.381531   43.012749   36.940460
H   25.842159   61.732758   62.145412
H   33.081619   69.312721   76.380692
H   26.462379    1.840382   89.425880
H   72.359146   47.148560   71.369659
H   70.929451   73.725113   97.182487
H   60.861320   93.791130   42.398647
H   24.030022   48.032051   64.912132
H   83.417450   36.317581   91.164627
H   31.202251   96.120644   64.475006
H   52.182503   72.892380   46.195583
H   62.496284   88.238106   26.779991
H    7.858423    6.337475   79.524109
H   27.938061   16.797190   59.098446
H   40.656414   71.891220   73.090797
H   83.747932   45.219959   75.044418
H   66.450119   81.337158   88.831223
H   55.742317   25.717468   25.702003
H   81.167702   99.164383   77.312126
H   56.033504   29.116716    4.413059
H   60.655128   56.702095   65.282570
H   11.582495   19.521996   29.635689
H   94.576073    4.834836   36.948475
H   36.308456   40.214764   42.020943
H   52.424110   45.229805   16.525625
H   23.663929   42.739155   58.573696
H   63.156105   86.536079   59.451611
H   24.227985   61.962128   76.214310
H    3.340640   25.952326   35.246529
H   57.596176    5.313052   82.723358
H   66.336060   13.744380   35.918839
H   22.602118   40.115250   59.552422
H   50.850166   48.148144   71.234451
H   62.827530   58.226395   90.062347
H   39.739685   89.906143   67.163811
H   21.959282   51.350311   23.955482
H   28.411572   74.227097   15.435982
H    7.774488    9.851265   73.600845
H   58.159412    5.524840   61.159191
H   53.859100   61.770866   96.005806
H   68.966446    9.629659   25.862907
H   32.983658   30.938564   94.513702
H   34.232410   89.446701   19.578949
H   66.332893   26.482273    2.280289
H   94.342468   58.753922   75.587082
H   13.537703   41.978561   87.367531
H   55.099609   92.842949   14.376657
H   57.656204   96.112984   49.390884
H   86.867287   64.214516   74.337875
H   62.015511   54.563396   74.319595
H   80.399094    8.460464   74.431221
H   42.062027    3.463315   15.937572
H   19.249298   33.749191   73.430534
H   23.189093   90.749313   47.057659
H   61.490120   23.793278   19.585392
H   76.993179   12.056940   20.222641
H   13.994609    4.156217   26.485945
H    9.088795   83.851723   27.732910
H    2.818706   13.520185   47.515633
H    0.894502   11.886705   88.273682
