100
TIME:    6.416, STEP:  6416
H   83.434647   33.642204   93.271988
H   23.280876   52.538677   82.655190
H   90.051331   35.496193   48.029789
H   82.553513   68.311066   88.479980
H   37.703522   87.028122   91.741852
H   28.524792   94.257164   14.143894
H   16.708080   94.576027   92.192635
H   15.601349   43.667019   19.097607
H   95.910347   69.421127   96.221992
H   99.515602    8.508253   58.930088
H    3.454333   24.404013   21.728245
H   10.958778   45.291447   36.230675
H   34.648544   73.602165   87.495537
H   37.398445   85.299965   45.501110
H   58.534737   96.924095   42.356747
H   43.550903   50.562233    0.456558
H    8.170537    6.340202   57.462135
H   38.270344   82.636597   77.112831
H   45.196651   47.513557    1.383176
H   19.659889   69.559120   53.163719
H   83.542191   17.483921   83.101219
H   77.488510   52.601318   72.896622
H    0.079362   42.441307   48.781631
H   22.918713   13.582247   30.565134
H    0.112122   77.339401   83.923500
H   17.298574   36.986679   87.085335
H    8.819660   75.772659   27.270475
H   91.178513   55.916893   78.852646
H   50.680779   31.201370   53.884064
H   47.010609   32.043999   93.442581
H   68.567268   97.391136    1.765496
H   70.867432   75.242828    5.302785
H   22.291180   99.057762   75.800903
H   49.193398   85.734665    1.456220
H   21.279785   73.888832   15.404950
H   30.369207   87.957130   99.254402
H   95.177132   69.567505   14.020898
H   98.808662   41.538128   75.200203
H   74.252075   41.621941   22.554090
H   58.877155   11.538544   42.832157
H   96.763992   76.330452   93.503883
H   59.508453   66.763489    7.508536
H   66.503387    1.975502   64.907310
H   69.659256   20.335104    8.058633
H    0.115677   78.748642    5.144378
H   95.306541   85.292221    9.226919
H   91.859665   73.761734   87.052208
H   56.582066   61.452698   65.563644
H   52.574036    1.077696   88.537125
H   60.445385   28.388151   34.924950
H   43.061039   50.220306   21.061333
H   16.940327   68.383347   52.865761
H   41.959949   59.210876   30.237036
H   28.112373    2.517179   14.936793
H   29.943893   20.872242   54.920780
H    1.586879    5.784714   74.211014
H    2.999382    4.415395   66.202431
H   48.306793   70.975441   48.294540
H   96.293793    9.861342   18.926659
H   35.628815   20.942898   81.124290
H   64.426872   80.197403   14.154728
H   71.201546   68.222855    5.049053
H    9.642252   69.466713   93.506073
H   83.615219   76.713776   52.947544
H   86.984955   48.409382   93.062798
H    7.202217   23.314568   25.547834
H   72.800705   70.178070   76.826431
H   37.168861   84.474831   72.924500
H   76.675453   88.773499   57.833599
H   60.369247   70.849541   88.222870
H   18.295403   58.856583   85.184822
H   44.938305   38.590546   26.370922
H   88.655624    0.946228   97.239807
H   88.968559   43.350353   21.936399
H   71.510857   37.788387   87.774063
H   77.337318   18.777775   64.212646
H   49.492764   70.480370    4.530272
H   33.415676   31.193384   68.772743
H   69.182030   34.672909   89.264488
H   84.878647   59.509865   68.177055
H   36.423759   95.658127   63.458286
H   22.748819   86.079544   50.241436
H   23.701096   14.416354   40.971130
H   91.560265   61.190208   77.414238
H   39.923698   47.561386   25.793030
H    3.623782   44.725060   87.329620
H   95.664848   36.857323   29.483099
H   59.215935   91.658936   29.053879
H   88.832626   36.939110   75.716194
H   99.077591   45.305294   53.572083
H   86.591789   19.877792   68.955978
H   53.017925   78.024002   55.773949
H   96.731567   20.030682   15.163707
H   67.347908    2.424449   59.420013
H   45.663857   75.023911   63.518955
H   23.856918   42.370270   36.054337
H   53.330284   35.880615   68.199280
H   25.892962    3.923281   50.079292
H    3.069755   64.508049    7.629211
H   37.733257   13.990353   79.667137
