100
TIME:    4.755, STEP:  4755
H   95.761635   85.963661   94.792679
H   69.153847   62.531944   77.924377
H   61.488800   15.997748   67.530357
H   82.274719   36.745110   79.525887
H   52.580948   53.891724   36.776215
H   54.287830   96.056648   49.650166
H    3.761516   82.418182   62.300198
H   46.152672   99.970642   71.606285
H   36.740959   29.119629    0.775870
H   44.898109   84.658119   93.889252
H   57.956512   57.570255   81.723511
H   74.356850   62.034218   54.462761
H   40.640671   74.045830   52.541260
H   19.641556   90.419624   19.097315
H   38.339470   45.291412   22.203320
H   10.335423   95.839249   38.334900
H   41.738380   96.477783    6.254758
H    2.750515   63.453861   34.692822
H   19.329128   77.832108   13.874857
H   64.406334    4.838263   40.075111
H   82.108284   82.842133   28.185726
H   18.246826   50.396317   14.346069
H   22.257927   55.950111   96.303223
H   77.250458   93.710419   53.926086
H   59.517853    9.063622   71.656593
H   24.870348   86.086624   43.279385
H   52.050461   44.817905   94.312843
H   31.329037   78.387039   23.946459
H   14.564242   80.502922   32.399971
H   83.321442   73.153343   61.397377
H    3.193298   48.445202   33.178474
H   65.990822   21.137337   59.069878
H    5.292519   20.583765   26.164907
H   79.011337   37.955292   71.430702
H   62.574921   99.478409   14.275261
H   85.981903   57.860752    4.478056
H   35.865547   30.398254   83.140793
H   67.457268   71.935966   57.987522
H   44.363361   77.814384   83.517654
H   15.325937   67.036964   12.147444
H   10.281425   19.339819   54.371441
H    4.268288   25.264391   26.194040
H   52.198437   92.014267   44.932198
H   75.720184   92.456848   45.654274
H   44.194439   44.282593   63.008808
H   16.741688   53.611164    2.477443
H   78.883102   83.430565   71.110298
H   56.493359   44.344925   62.790382
H    4.025848   38.640308   54.796700
H   25.604267    3.105490   51.092453
H   43.181843   10.578766    3.552126
H   36.215874   22.510542   61.906403
H    7.504386   49.579834   26.705629
H   66.574028   29.621918   41.640770
H   62.194855   75.306648   40.791027
H   99.515793    7.531924   30.755386
H   97.699036   52.343269    8.227528
H   71.988419   27.836813   91.076645
H   65.292274   39.679947   46.439499
H   45.237232   93.272629   28.367073
H   59.649811   57.441044   43.658188
H   30.150583   83.683212   80.206070
H   96.876976   82.810226    7.405846
H   69.557961   67.665665   98.039139
H   21.055799   81.070496   38.381870
H    9.238491    5.887863   27.336035
H    6.065608   12.756007   96.632919
H   51.905434   89.480301   93.519096
H   93.889877    8.122345   62.008759
H   26.722967   87.305176   91.720459
H   71.039680   71.869705    5.107206
H   81.895355   93.715591    4.760184
H   96.955948   83.104500   39.830933
H   25.532413   48.474270   20.627392
H   91.429207   35.418644   61.859341
H   38.069778   12.323202   75.977615
H   98.677750   14.414177   75.143242
H   55.378872   39.802708   77.041344
H   89.532829   39.551792   70.737404
H   66.330994   49.986935   11.273687
H    3.919971   78.474319   64.184074
H   98.097954   75.281326   89.167015
H   18.638491   86.639709   82.786148
H   77.285660   19.054644   29.121246
H   20.800238   51.457748   86.808556
H   41.856304   83.714043   71.984802
H   84.730415   57.625687   50.280319
H   32.493683   24.597574   46.293304
H   54.363632   29.420961   89.301033
H   45.933025   13.641006   94.197769
H   18.616905   30.188534   33.878704
H   30.120745   53.100555   24.130903
H   90.258324   70.194115   86.715988
H    6.816020    1.658046   47.423344
H   74.379570   23.805496   25.350716
H   86.665070    7.962209   21.847237
H   85.173027   40.560238   63.724548
H   24.319517   56.723663   79.945274
H   82.195953   57.347233   46.756462
H   34.562160   56.610394   39.676174
