100
TIME:    4.087, STEP:  4087
H   40.934723   47.222565   95.404251
H   87.602943   26.331964   35.804024
H   50.006531   67.939186   75.368675
H   82.162598   64.265862   16.140253
H   58.564163    0.348579   54.888947
H   64.648567   96.780342   83.495537
H   38.770618   37.311710   10.061730
H   98.656151   42.178989   32.939198
H   53.161674   93.344910   42.825123
H   63.153542   75.066628   67.734344
H   20.092239   30.691654   46.068707
H   99.849220   28.550638    2.012413
H   83.267258   14.441082   18.917313
H   52.716469   92.478584   68.263580
H   30.215191    4.960318   54.315182
H   37.195694   54.265129   93.784119
H   95.454811   52.293041   45.444084
H   88.473961   95.949684   57.853321
H    8.924755   49.809326   78.680771
H   82.406944   19.024191   94.594627
H   21.748337   49.344151   46.314285
H   54.205017   49.509537   71.232483
H   31.176689   61.382912   15.415887
H   39.314934   85.698822    3.536128
H   83.409943   62.041069   66.723244
H   27.915541    5.831573    6.096256
H    9.651880   72.586807   81.062111
H   87.692688   47.207047    1.864418
H    0.038210   19.896622   63.977486
H   57.706757   89.686180    8.293655
H   76.905449   88.544792   86.028511
H   23.812727   39.591530   20.909966
H   58.241177   69.457985   65.986191
H   50.787277   99.173676   99.573219
H   79.179108   49.974297   73.597290
H   27.913065    5.540502    6.579513
H   71.794815   54.861313   30.504812
H   95.069756   84.157219   10.850451
H   72.560394   92.369804   48.251381
H   78.243263   29.571754   59.591976
H   55.934082   96.420166   38.633648
H   64.304855   95.284073   94.812531
H   46.444561   88.008469   96.682518
H   18.376348   81.265076   80.339600
H    2.139071   70.637543    5.846023
H   25.359760   40.870075   99.762276
H   73.664352   47.103172   64.698982
H   56.457684   37.464737   21.458290
H   84.497238   93.964874   81.442627
H   11.594165   92.941643   97.815163
H   43.232807   75.069908   96.509491
H    3.753798   84.496414    5.756987
H   93.649956   45.706543   65.504250
H   82.046806   40.523193   12.164702
H   15.380981   16.762903   35.108501
H   98.679977    8.234808   53.495682
H   55.348698   71.617989   44.695213
H   21.729240   90.920662    8.282902
H   12.610296   11.454239   97.721581
H   89.319229   41.928944   47.366585
H   17.511606   88.507835   95.741768
H   53.859001   89.900864   10.429389
H   51.527493   28.393894   53.212608
H   23.686026   64.026810   16.176800
H   94.541939   34.421833   76.173470
H   50.274208   39.095863   87.839142
H   59.660934   89.660858   64.382675
H   98.048561   51.277420   61.584835
H   60.599442   56.120575    3.902089
H   13.189383   53.707909   93.127075
H   92.251045   17.320244   13.121120
H   36.975388   15.885781   55.853664
H   40.511871   16.147297   56.960052
H   40.240429   90.745979   60.318291
H   59.220493   34.465611   11.220111
H   22.275927   69.512291   20.926620
H   38.027985   72.313278   63.329700
H   23.995022   83.481987   40.150047
H   57.497673   41.513920   63.285927
H   99.090881   86.367256   68.822533
H   90.851395   71.563553   24.259096
H   47.977974   70.918777   45.025391
H   76.382240   75.477448   19.166546
H   31.329592   61.892525   90.132858
H   53.326569   93.239861   51.563568
H   57.232250   59.178802   25.597046
H   40.116219    6.194740   18.427595
H   21.742636   78.079216   53.239746
H   40.501328   66.614571   94.764412
H    4.992387   41.126083   70.315872
H   91.279449   94.118202   19.771769
H   80.693039    2.865035   11.402510
H   47.438072   50.148262   35.058514
H   42.252201   61.140907    2.384546
H   85.928093   83.641075   10.002301
H   31.491058   34.339424   56.350105
H   38.195190    2.225308    2.141552
H   21.868132   51.036041   90.637596
H   14.017937   54.467747    2.706947
H   93.070854   73.752602    4.025933
