100
TIME:    1.859, STEP:  1859
H   91.606110   51.541519   97.444046
H   49.558800    5.536382   95.265465
H   11.709379    7.648261    1.512760
H   81.788635   56.059593   38.265087
H   78.520157   21.764561   15.299793
H   99.189095   99.194099   62.849636
H   55.539005   86.866081   35.829079
H   73.772560   49.428440   37.506989
H    7.930229    7.558121   83.069893
H   24.038061   43.075844   80.486809
H   27.335373   41.043278   60.680332
H   84.887436   16.872469   60.603294
H   25.011749   49.235359   40.359413
H   63.034767   99.345894   98.709846
H    3.111764    3.974117   61.413666
H   26.778732   49.134926   78.728287
H   74.606644    4.935646   42.611824
H   40.870491    4.297389   35.098434
H   74.216896   56.342445   61.300121
H   42.432884   66.333603   42.901985
H   53.960938   71.148682    6.788258
H   40.600956   46.553604   60.965523
H   60.923698   79.503090   79.161652
H   46.320290   58.977512   69.009689
H   63.095329   38.738312   50.278099
H   38.134975   72.214844   14.928494
H    1.774734   65.202896   36.856121
H   75.684372   43.211544   28.220530
H   51.593079   17.755095   69.296440
H   72.275780   44.829849   31.173283
H   89.229530   88.750961   62.307201
H   83.135651    1.152318   27.167107
H    1.302424   32.468452   65.270355
H   56.648567    3.356560   93.435028
H   34.563469   18.394173   37.928200
H   34.187908   30.517805   14.249074
H   58.100571   36.456398   54.947208
H   87.155403   24.929127   53.624958
H   67.148453   40.823830   63.951698
H   88.096336   38.149860   84.296707
H    8.199898   19.970308   86.141769
H   64.544861   95.289757   90.139130
H   27.253492   74.647812   35.751022
H   60.649437   43.927689   62.496258
H   95.401283   58.542118   15.189722
H   54.103870   98.374367   90.719185
H   55.709400   26.023149   43.508247
H   56.338696   14.523520   83.602333
H   19.371435   78.486656   70.319595
H   64.878654   59.044567   53.642818
H   43.402790   90.168770   73.017853
H   95.477486   91.237686   52.022976
H   47.442513   32.787842   94.901573
H   33.642536   76.876518   13.849195
H   92.764694   21.474493   16.181044
H   95.892258   10.578228   29.342056
H   14.105032   35.906517   32.793907
H   87.632172    1.327648   65.672073
H   36.891960   17.315687   68.767929
H   36.343670   70.677658   10.735545
H   76.967697   92.120308   69.452538
H   32.931610   10.640945   11.239642
H    0.326896   80.383232    6.023503
H   70.694580   51.906990   76.670158
H    6.108142   12.368440   68.687088
H   87.144051   49.856606   56.103939
H   38.417923   12.633985   56.815075
H   51.951973   23.855659   55.073551
H   49.555611   16.210434   43.639832
H   68.044495   41.645607   97.818604
H   63.000816   68.914391   39.851658
H   20.684347   89.828354   92.728813
H   85.781052   26.352772   14.080532
H   89.277916   31.737993   92.722664
H   51.800537   31.288836   42.323101
H   69.609077   26.716692   70.841484
H   35.739937   65.422348   23.925920
H   19.319530   29.164824   17.104847
H   50.660683   48.056492   38.419167
H    8.356529    7.708376   60.766670
H   47.261250   48.513866   91.097115
H   80.806183   56.368240   31.329512
H   35.421711   38.285187    6.960451
H   78.053047   71.238625   93.630798
H   61.811661   32.602722   67.543259
H    8.503834   77.340019   70.877831
H   91.313118   68.188477   12.187605
H   85.881393   56.458511   76.417519
H   94.261177   90.666420   12.990490
H    1.977338   32.791191   90.672813
H    0.100442   73.811188   72.720413
H   15.834455   35.319958   68.942238
H    4.561497   83.333664   62.732468
H   26.907055   25.994326   52.160698
H   24.451202   83.211761   58.804283
H   47.467377   22.321180   71.429123
H   15.043868   74.364738   30.276627
H   13.690755   32.065948   26.291859
H   20.154293   44.863712   89.331406
H   54.691544   30.952538   18.637478
