200
TIME:    0.847, STEP:   847
H   28.122881   60.460491   25.718901
H   33.374207   41.739666   14.539385
H    5.415483   95.706444   75.246208
H   38.303253   84.068520   28.626797
H    8.765469   99.113571   44.931301
H   69.871826   36.340061   47.583103
H   12.153571   54.873444   61.400318
H   16.491158   15.096774    3.526684
H   12.078854   78.406227   32.911659
H   89.493652   66.395569   72.129967
H   33.350700    7.560731   12.143440
H   33.287827   58.224545   41.664745
H   26.072239    7.153636   36.413719
H   75.714020   55.767902   71.515465
H   90.316116   76.617310   41.485081
H   11.607635    0.956436   41.228733
H   12.761573   36.147198   85.960770
H   22.148851   12.347967   32.713829
H   85.221397    7.726676   51.419430
H   91.987396   71.368797   13.940344
H   65.369705    7.058960   98.031380
H   76.515648   72.015892   47.183296
H   76.828369   58.128075   34.571579
H   21.465162   93.593277   89.682724
H   29.629738   37.116589   23.750965
H   18.158625   89.274910   86.908768
H   10.650757   70.976402   73.487457
H    8.441192   95.169479    2.328454
H   36.634262   38.079659   34.784039
H   65.619759   37.025452   77.628754
H   12.569005   76.808846   16.936937
H   20.887962   77.732895    8.547948
H   12.456787   22.046547   80.593452
H   76.337090   64.240158   48.900017
H   18.858658   64.719284   29.601337
H   13.233202   36.082043   86.436859
H    3.686301   61.327782   90.511879
H    2.890461   60.456863   87.876045
H   30.605064   24.665209   57.924175
H   84.261528   37.192356   39.985443
H   80.684921   76.868111   21.671955
H   43.552231   30.378319   21.831938
H   65.772598   73.837860   72.867569
H   35.929001   92.715111   40.457054
H   49.516949   94.814690   66.268745
H   32.517834   98.041473   49.289429
H   91.412827   96.473434    9.487140
H   75.338165   65.541344   25.826187
H   10.555221    5.717616   61.603966
H   40.395493   20.540766   80.032967
H   63.768646   62.813217    3.813025
H   97.934883   46.145611   76.592003
H   68.549156   77.063744   15.859792
H   13.372418   94.993164   90.692017
H   51.505875   62.885445   71.142365
H   97.524712   57.395397   98.524658
H    3.698210   19.042458   43.143345
H   74.040329   72.690178   94.347084
H   15.372856   86.203262   21.807240
H   29.064285   92.580727   55.773216
H   48.453640    3.533678   24.501436
H    0.846110   17.862822   53.719727
H   88.170006   37.780373   64.406448
H   38.833611   66.018341   17.220158
H   81.105980   85.128128   42.751331
H   14.928391   40.143150   43.774033
H   63.501564   10.358057   98.375984
H   93.942238   92.829979   99.289108
H   38.113235   14.055982   54.296906
H   41.742844   52.209602   50.950176
H   58.198879   87.090706   89.517776
H   15.080896    7.867026   40.515846
H   96.758926   36.157040   79.170113
H   27.640835   95.622498   78.244240
H   86.536179   10.697495   39.071602
H   68.656403   97.647034   58.910984
H   92.861984   52.547367   63.559502
H    4.072944   17.023079   27.211205
H   16.148186   56.733086   21.485111
H   59.128548   87.281654   65.475067
H   69.130585   19.843132   92.121872
H   53.327240   57.673538   69.092247
H    8.631514   20.324581   72.519669
H    4.879879   81.708244   13.634851
H   17.292828    5.742651   40.580189
H   41.767834   64.536362   15.147061
H   63.060276    4.048963    3.162940
H   70.283653   95.952774   34.336788
H   84.265121   73.534599   79.356750
H   20.403851   13.255374   48.187542
H   15.798291   40.132820   78.054588
H   79.827286   93.861160   11.612461
H   76.095848   10.016260   78.442146
H   32.808914   72.626068   85.771790
H   40.505112   48.715363   93.220642
H   44.134773   41.280567    0.521941
H   87.539589   93.283516   24.471176
H   94.370056   38.585064   55.199329
H   23.263710   63.697472   55.032368
H   77.758575    7.790351   27.398600
H   36.948452   97.209290   97.522591
H   13.143002   85.839928   62.516357
H   35.761940   14.986397   38.984802
H   51.042610   69.060196   14.267648
H   24.534096   19.495762   44.767151
H   11.454224   97.054436   15.471714
H   90.250870   36.919033   52.575653
H   61.174202   57.580097   95.270241
H   88.222565   32.427593   28.484135
H   23.865736   19.597158    8.508078
H   55.180775   90.792023    1.222920
H   10.366420   78.609314   97.425308
H   46.551472   87.318474   80.732269
H   61.167992    6.311216   59.301754
H   43.594078    7.244610    5.489260
H   89.266739   88.041161    6.317924
H    7.618057   16.989944   91.256332
H   37.691471   56.873650   21.845177
H   41.914013   80.502968   53.540573
H   86.801407   58.789669   71.987061
H   46.889839   25.793072   67.629501
H   92.099022   13.100643   66.042885
H   46.870491   96.221817   42.036446
H   95.134453   45.476162   91.283531
H   58.753426   93.923553   72.737564
H   69.960289   78.959999   13.811464
H   80.298698   52.024124   47.612427
H   62.151474   92.330681   40.129139
H   99.937592   30.511688   71.057343
H   97.166206   21.272310   76.842728
H   73.111801   63.512421   26.608234
H   58.401230   92.071732   23.641537
H   90.455666   12.126415    1.891047
H   71.156853   28.565758   57.177555
H   34.412273   90.394577   28.524117
H   46.191109    0.847822   74.739059
H   69.897652   88.111290   85.556213
H   96.395851   45.268410   73.607483
H   62.179184   52.822334   71.406525
H   43.776749   79.978645   78.591232
H   80.668495   45.218311   34.517746
H   29.294699   59.453953   60.397041
H   35.492603   67.932564   78.910408
H   29.899040    4.555264   88.183052
H   68.833794   49.635933   68.917191
H   68.181152   72.433075    0.774727
H   59.087486   94.119576   42.935661
H   26.077942   50.823837   65.342430
H   81.412445   39.448971   91.910210
H   28.811438   95.301819   67.281670
H   54.825802   71.618652   46.761780
H   59.339146   90.313492   29.130322
H    4.374233    9.141850   82.156822
H   25.955515   15.075673   60.952103
H   37.682381   69.910248   71.734100
H   81.521484   45.033993   72.736717
H   65.665054   79.087822   87.943161
H   54.676014   26.920815   23.944906
H   84.600357   99.447052   80.093613
H   56.874359   32.177002    1.535098
H   59.918415   59.749084   67.276703
H   15.103985   19.910666   30.285427
H   91.347694    8.104807   36.979660
H   33.555580   38.011490   45.229580
H   53.142227   42.684925   15.788749
H   22.371748   45.125534   58.983681
H   64.447571   87.749153   58.656532
H   24.162468   58.549786   73.112961
H    2.321329   26.196228   35.423626
H   54.173534    5.879034   83.567932
H   67.768860   12.852456   35.925133
H   25.193203   42.901028   59.322109
H   49.401058   51.371086   73.344742
H   63.751354   60.019970   88.322273
H   43.225555   90.470337   70.690308
H   19.645287   50.943188   23.878521
H   29.182045   71.883919   12.298870
H    7.109765    9.779739   72.641830
H   60.077728    7.268419   62.036095
H   57.426510   60.966347   94.947800
H   70.335732    6.941857   27.606558
H   31.470985   30.847012   91.775703
H   37.685951   89.526237   18.092934
H   64.699821   26.343513   99.521172
H   93.372581   62.006905   75.896072
H   11.967645   41.345703   86.992165
H   52.488068   94.127548   12.714832
H   61.259377   92.936104   46.766468
H   89.039375   63.880249   73.480713
H   60.651661   54.971378   73.372025
H   76.816521   10.941830   74.966805
H   42.676861    1.425033   16.892862
H   17.583324   31.964773   71.712204
H   24.499298   87.756111   45.546181
H   64.064178   27.143106   19.830725
H   76.810074   11.872905   21.250177
H   13.496076    2.110960   23.954512
H   11.268537   85.342316   29.848064
H    3.818830   13.310329   50.869896
H    1.676759   14.427651   89.315666
