100
TIME:    8.481, STEP:  8481
H   43.786369   44.272881   91.381424
H   66.251877   64.438751   12.858790
H   25.551523   84.061340   23.785976
H   82.900116   83.232719   75.291084
H   19.202055   52.546803   35.749649
H   96.499146   92.019997   18.647503
H    8.481589   34.015816   53.678410
H   53.296417   22.316492   29.496437
H   45.148705   70.879074   66.239807
H   43.113777   38.159595   39.786171
H   11.373062    7.494080   22.817003
H   32.145241   48.799221   89.242577
H    2.944371   48.642319   82.288452
H   35.152321   78.935066    2.646985
H   83.616219   12.468094   43.049011
H   60.520737   69.949669   29.044083
H   42.115517   42.922482   45.447243
H   82.424194   82.153603    5.533940
H   77.358536   34.141926   10.174800
H   64.019852   25.710665   93.758553
H   61.002159   11.906467   27.055689
H   75.462074   55.342636   97.042816
H   72.508629   25.649778   89.698303
H   31.050386   38.285614   77.201752
H   26.254711   13.574036   99.174049
H    7.618559   76.083603   92.782150
H   30.752481   89.931656   68.246811
H   16.939817   52.304111   47.110107
H   95.581673   18.554731   56.270378
H   26.191868   80.934525   57.603638
H   49.837307   82.563164   38.389351
H    1.252930   18.191959   14.135384
H   67.748184   47.971764   61.832413
H   36.445099   96.489746   14.460466
H   69.887016   17.539268   41.043736
H    9.876616   49.699425   92.763466
H   93.237419   93.941658   76.735008
H   13.457436    3.743875   20.922218
H   87.086082   96.632103   22.440296
H   64.377045   18.220266    5.301587
H   55.635071   47.184784   42.153164
H   85.481339   74.861404   12.931279
H   84.274689   14.362795   14.065365
H   37.803295   54.998817    9.962535
H   20.992199   97.278725   81.853081
H   68.649590   24.674358   17.616297
H    7.997591   86.063362    6.875796
H   56.705257   82.721542   93.333794
H   12.939934   30.053734    6.162493
H    3.799984   59.819683   90.540916
H   42.919247   50.857872   42.830368
H   17.305269   76.765549   17.311462
H   84.789330   71.184448   10.308825
H   80.290375   68.832733    6.059988
H   65.525063    1.838631   72.479660
H    4.158834    3.612535    3.913544
H   33.910362   44.830894   62.601128
H   94.543396   75.961327   95.103050
H   59.154430   97.120369   60.400597
H   99.361259   79.666290   22.390770
H   94.688187   84.165283   53.149693
H   97.910637   49.002121   11.615671
H   49.836315   28.555136   51.902832
H   25.414478   87.962631   96.878296
H   68.950317   83.480835   85.367279
H   80.347755   20.657555   47.647266
H    7.121659   41.572056   76.524582
H   94.524933    2.574238   71.643448
H   79.594452   40.395760   28.319054
H    2.269485   74.622025   83.855545
H   52.720196   18.353100   60.418434
H   74.876968   69.997459   77.699326
H   54.014282   98.807091   44.298023
H   43.507603   12.657795   99.242012
H   71.009537   40.803036   44.336704
H   26.152773   51.126144   25.266012
H   37.038895   91.747925   41.154228
H   30.430166   96.172890   82.818848
H   68.206413   28.607349   12.304207
H   83.609428   47.019493   90.275566
H   76.844902   17.022196   86.880722
H   77.703140   99.471039   77.483055
H   54.317322   48.950474   37.630894
H   33.628860   37.897072   88.809166
H   39.376495   18.383762   25.615311
H   56.103931   20.574329   30.729721
H   33.581669   86.714363   27.950096
H   92.426842   26.415749    7.643209
H   31.690865   21.963678   58.827156
H   16.504229   60.346870   27.392805
H   71.100151   31.380283   12.565330
H    5.807016   33.331223   95.125893
H   29.101826   81.989342   74.853333
H   66.920547   27.705311   98.659645
H    9.958843   90.052994   10.971191
H   94.417389   60.826416   29.394432
H   89.420708   54.385872   49.438759
H   21.907022    6.100524    8.624235
H    4.697858   73.425209   34.664951
H   65.997406   60.994808   80.738708
