100
TIME:    2.635, STEP:  2635
H   39.127594   80.378441   96.733597
H   27.972984   47.610916   44.214954
H   25.048063   63.476440   92.406456
H   81.918884   24.088644   95.729309
H   71.569595   83.964386   94.259735
H   87.158821   98.353401   39.698772
H   14.870502   39.265800   96.513283
H   12.780495   16.563433   66.257988
H   88.854607   32.948975   34.222897
H    2.834112   54.218056   10.872310
H   55.153748   72.267517   85.932785
H   55.271797   55.769562    5.367261
H   75.649239    2.286087   63.230492
H   24.611305   96.954048   57.765789
H   12.551510   34.658081   24.109789
H   95.576126   81.262299   14.313410
H   12.216191   56.254295   13.262795
H   57.453560   66.560570    8.193470
H   86.306374   88.894257    2.185788
H   21.527916   49.856266   95.735725
H    7.911989   93.894318   85.724411
H   15.000366   47.581985   94.883713
H   50.562981   73.191933   56.960114
H   74.221451   68.284393   11.375127
H   35.340446   77.193451   56.003136
H   34.576809   49.093540   42.192963
H   34.859596   32.942799   52.255108
H   10.208649   79.432610   53.872379
H   68.466248   88.160011   32.613579
H    2.031640   25.624039   92.863914
H   19.758348   58.340282    0.906135
H   32.132576   79.708870   55.328911
H   55.964306   75.693291   35.178566
H   89.435799   32.240646   60.742523
H   15.272262   59.734344   85.181648
H    1.656973   91.477531   11.581929
H   32.530098    8.035933   16.092833
H   55.080269   10.726063    8.386845
H   33.848763   24.004026   88.961426
H   15.006235   65.504295   45.350826
H   55.166767   46.595730    4.424948
H   94.802361   30.118217   26.595381
H   33.937634   79.301254   91.802483
H   11.096853   56.934830   38.370369
H   28.089209   27.927677   81.594826
H   44.092457   13.175373   93.868843
H   62.318966   68.137909   50.752487
H   56.380138   22.513113   31.616768
H   42.052528   14.219273   39.362976
H   81.147942   70.852348   99.370270
H   43.343586   15.251238   81.199860
H   33.187992   19.230503    1.077929
H   63.540108   37.287354   49.833549
H   15.674091   64.218681   48.091278
H   30.987968   89.503250   22.764540
H   96.863205    9.762691    2.925186
H   63.297779   13.515361    6.597857
H   29.848969   28.044609   45.684769
H   98.094536   50.104244    9.192450
H   85.135956   30.322874   88.664925
H   25.918737   56.030796    8.951163
H    5.392723    3.416565   76.130020
H   52.963902   27.466352   52.787033
H   23.979692   56.128242   55.602978
H   36.909595   50.391491   40.953659
H   39.472908   11.279213    1.987051
H   76.157387   39.461315   94.279434
H   98.348137   68.235596   92.170837
H   88.229942   60.452034   94.969215
H   83.769104   80.676338   96.184570
H   38.360069   16.114092   30.541088
H   56.698555   64.074570   49.544640
H   35.185226   87.968895   94.183830
H   72.203453   82.631836   46.602669
H   89.215599   32.394047    1.148345
H   87.950508   76.452263   18.627853
H    6.195498   98.162247   37.651173
H   55.777416   78.425117   59.962696
H   87.870743   45.778904   47.078987
H   70.299965   65.447922   93.913681
H   62.447102   56.541943   37.476048
H   39.031059   61.436111   66.440407
H   84.517197   51.239044   80.870667
H   31.434612   37.641937   22.751648
H   24.026978   84.063675   92.318825
H   90.645386    5.841522   24.765759
H   43.140419   11.766968   49.190323
H   98.373459   94.330093   68.342079
H   10.366034   47.459267    6.642172
H   33.368862    0.862420   18.413200
H   31.857697   15.714635   89.108109
H   73.254395   93.675102   83.731422
H   54.350513    6.587830   22.766155
H    1.909855   73.065987    4.483633
H   11.032593   13.701859   76.636559
H   11.561828   91.678535   31.347946
H   53.448288   18.897564   85.648140
H   16.539671   38.673126   13.874052
H   83.188225   48.208744   24.328918
H    2.883704   11.021107   43.897736
