100
TIME:    7.622, STEP:  7622
H    1.877857   23.047043   92.167862
H   89.976089   17.888241   58.697918
H   10.786150   22.260937   33.869373
H   82.755936   18.624157   22.374516
H   26.899317   83.694252   59.041321
H    9.819818   92.950615   33.578049
H   53.500050   76.012207   86.503479
H   20.812126   48.001186    8.366454
H   66.264565   53.469193   20.308743
H   66.575844   25.825624    6.150367
H   91.275162   72.930344    5.560247
H   64.932968    5.742132   50.386513
H   57.720100    0.636975   67.652550
H   77.685509   81.582741   37.277950
H   73.182808   89.198227   84.359894
H   95.058472   45.081055    0.347942
H   11.191238   86.106934   67.249084
H   64.060867   23.952301   35.309578
H   63.975994   98.103928   64.916656
H   87.167343   43.950603   35.273781
H   11.976425   97.422485   50.367718
H   93.108902   54.202301   70.194580
H   83.977516   32.632988   14.275447
H   10.863867   28.009493   40.997864
H   56.977608   81.697525   92.830116
H   11.668972    1.406713   73.619026
H    4.824953   25.638884   51.202404
H   89.419609   12.208884   18.714674
H   76.903770   40.619190   96.876793
H   93.255081    2.194729   89.316063
H   16.028574    5.535609    6.350644
H   47.014950   41.922726   93.657372
H    7.239847   10.820799   84.446907
H    0.148817   75.211922   50.648132
H   91.265022   82.577690   88.780197
H   35.204762   82.416351   95.463570
H   10.848321   25.401777    9.049087
H   48.960152   19.464809   60.303505
H   23.344517   15.346659    5.684196
H   45.286011   98.636719   37.717545
H   14.341974   17.713018   21.915495
H   57.873314   71.492828   69.075340
H   76.882172    9.209988   52.017780
H   92.653732   40.577415   25.974438
H   95.503975   31.167164    8.344921
H   79.738365    8.293509   14.126478
H    1.282318   39.348946   98.627129
H   56.652828   73.874115   40.183697
H   87.829475    1.196925   40.429527
H   85.765381   46.745152   50.602669
H   42.978230   33.789017   33.773224
H   75.557632   56.474430   73.699921
H   66.976509   66.203674   60.196632
H    0.187186   82.844437   68.154190
H   33.920395   26.560272   65.178894
H    3.088951    4.516119   33.155930
H   79.453156   69.616798   80.903023
H   58.505783   57.083626   17.229609
H   91.404274   60.825680   26.345093
H   56.044312   13.639821   46.822777
H   40.502605   24.113701   20.125343
H   28.398262   56.997574   50.483833
H   91.518044   87.171173   10.807037
H   66.430107   83.283325   20.201008
H   34.852631   52.088459    5.372341
H   33.115784   63.361137   96.855972
H   76.041016   11.875475   35.053082
H   53.862114   53.447929   30.578278
H   36.781845    2.118024   82.194397
H   84.823616   31.477732   85.677460
H   79.999199   76.801178   70.720772
H   45.613972   98.518944   14.736123
H   10.022165   41.296909   66.324280
H   62.414883   67.021851   50.279907
H   29.629980   39.538181   79.206909
H    5.843744   96.071190   83.065193
H   59.023151   66.098091   25.918299
H   90.075745   52.337673   35.374378
H   27.016050   31.130505    2.717855
H   25.734787   93.812553   64.279091
H   60.028236    8.135446   35.539429
H   13.245713   93.900436   49.347263
H   99.982658   34.584873   55.824646
H   74.530006   64.390259   67.264366
H   81.201889   72.118126    8.885558
H   75.872360   89.022919   71.077988
H   76.210930   49.170982   86.989662
H   78.611748   95.153748   16.549652
H   13.861661   69.791527   65.852669
H   92.451355   95.684830   96.685974
H   35.946369   84.997444   94.424484
H   42.249714   68.726639   78.754875
H   74.038422   56.218410    8.425540
H   83.902779   75.590782   40.738491
H   24.812691   66.998215   91.232513
H   23.467575   94.748108   73.762642
H   57.603722    5.090744   98.840172
H   23.565096   63.594173   25.870165
H   45.618462   69.715843    6.614178
H   12.643789   83.040390   63.489826
