100
TIME:    1.919, STEP:  1919
H   87.548492   46.039200   97.389114
H   47.889793    8.789522   99.050255
H   12.740721   11.964744    0.808390
H   81.798706   53.587669   34.976055
H   77.982742   26.573826   13.673016
H   98.258919   99.129097   68.791496
H   52.394627   90.917290   40.521156
H   69.056679   54.619022   31.997803
H    6.455315    1.789279   79.293343
H   22.398581   43.937355   82.836052
H   21.754318   43.457523   54.901066
H   82.597702   19.879976   56.332359
H   21.195145   45.605293   34.396126
H   60.063881   99.160957    3.275895
H    3.841640   98.614746   58.529297
H   24.366318   43.886665   73.747818
H   69.782730    8.903542   48.074318
H   42.152687    1.379520   33.018356
H   75.151649   58.859688   64.461044
H   40.816521   65.059189   46.987068
H   50.400452   65.175781    5.159763
H   46.354130   46.632797   55.856422
H   60.122612   79.015114   77.445038
H   40.745644   59.697117   64.553818
H   60.949333   33.979858   50.720757
H   37.859859   70.426819    9.304753
H   96.601006   62.708759   38.046764
H   70.621506   46.012142   30.203791
H   52.897705   23.198591   66.460136
H   74.576500   43.344864   35.943142
H   91.589760   94.131516   57.559734
H   86.924103   99.494576   21.612602
H    5.528841   28.078705   70.675629
H   59.183662   97.857956   90.907257
H   33.072075   13.858596   41.581612
H   39.404583   35.231327   14.042851
H   63.855118   34.259132   59.674992
H   84.675240   23.830952   57.858814
H   64.451309   39.543007   58.200813
H   82.444786   32.532642   89.017166
H    4.099709   22.029100   87.555344
H   59.152405   97.982323   92.958038
H   27.770308   75.007614   40.084671
H   56.817955   44.933395   68.362839
H   90.196510   56.175022   20.324228
H   53.329792   99.518776   90.962715
H   56.342945   29.259996   44.020943
H   56.341900   15.141272   87.314796
H   21.125128   73.517174   67.926407
H   66.136589   59.957806   49.446499
H   43.398212   84.376228   73.650482
H   98.393440   85.670364   48.083920
H   48.687172   33.135742   91.417076
H   32.253223   75.897820   16.496672
H   87.988388   26.734426   16.690077
H   95.967331   10.515171   27.299515
H   17.908648   34.175255   38.500389
H   83.164398   95.661407   64.126663
H   41.623863   19.851011   64.161911
H   32.384472   75.289169    9.029117
H   80.752487   89.329781   64.774193
H   30.802223   10.082359    8.524760
H    4.396738   76.291740    1.907193
H   74.814453   52.233376   75.041435
H    8.489703    7.576231   74.274551
H   83.458138   46.873817   59.651608
H   33.604080   14.708226   59.711803
H   47.807381   27.287285   57.941898
H   52.546181   11.899216   39.876556
H   69.260315   44.663643   97.692261
H   61.095604   64.832054   39.132053
H   15.737073   87.837082   97.121513
H   81.869003   23.385090   12.541988
H   87.957726   27.941072   89.156685
H   54.693146   31.374208   46.871441
H   71.027229   30.562136   66.804008
H   41.187782   60.221817   24.987246
H   22.138439   25.241560   20.418598
H   53.536812   47.880711   39.088417
H    5.413960    4.440630   55.597603
H   48.435413   49.134594   94.683235
H   85.307831   56.760086   26.312193
H   39.217945   39.286774   12.675058
H   82.180244   76.372902   88.150452
H   58.890213   28.849518   61.726913
H    7.122797   79.543694   75.044395
H   95.320381   63.825989   15.048742
H   86.847275   51.654739   75.793129
H   95.506294   87.325661   12.499653
H   96.672653   30.322472   92.817894
H    2.555933   77.051239   73.987503
H   20.273851   39.832592   70.085732
H    8.411060   85.131760   67.374191
H   32.706463   29.633776   56.205956
H   23.413681   77.837616   60.183067
H   52.423126   19.952024   68.330063
H   10.281409   77.808037   26.826004
H   13.911054   32.576813   25.331699
H   17.296246   45.122349   84.305161
H   58.417740   29.411476   12.858503
