100
TIME:    5.173, STEP:  5173
H   67.493568   47.630836   94.409988
H   57.609352   85.181046    4.279282
H   68.675888   46.069992   62.624645
H   82.344879   19.522884   56.614456
H   48.836960   87.396271   25.443123
H   47.804417   95.603798   91.045616
H   81.852837   10.642611   94.988342
H   13.298698   36.131992   33.226254
H   26.465721   88.930450   74.465828
H   33.474800   90.659981   10.257483
H   19.075165   74.389496   41.459888
H   58.403915   82.986519   24.708971
H   13.967148   48.769127   11.006592
H   98.945305   89.131233   50.908455
H   43.422874    7.954439    2.110025
H   93.528091   59.279556    3.636563
H    8.125217   24.124828   44.306946
H   11.688935   43.117054   20.202909
H   25.839649   95.365707   35.895504
H   53.145554   95.960732   68.534523
H   57.303566   41.229179   16.840549
H   58.320892   50.951218   78.749557
H   16.677025   52.550545   84.344147
H   38.411655   98.712372   22.880795
H   44.567413   75.915375   74.743629
H   22.964869   73.732101    3.972790
H   16.004919   27.440990    2.605344
H   96.059517   97.897873   37.764771
H   23.653267   18.427088   12.641953
H   99.349792   62.807945   94.627663
H   19.644814   85.928406    0.107643
H   92.383705    9.589210   20.373497
H   34.736202   90.001396   63.821648
H   96.672501   99.648247   53.820564
H   52.184875   67.880936   39.727364
H   22.317553   90.599922    3.163172
H   75.956512   15.089043   16.077312
H   50.181347   64.288536   87.485924
H   26.718143   68.706352   43.009872
H   75.954109   27.904091   45.035534
H   81.714050   33.681145   64.219337
H   66.700706   44.025215   45.829250
H   55.798916   94.520889   75.124458
H   49.029316   99.471375   86.524582
H    7.936651   27.791824   98.777611
H   11.348253   61.583881    4.176649
H   82.148727    6.162726   75.122169
H   56.515682   48.650192   88.653877
H   16.243370    4.022724   38.120964
H   34.371067    9.467718   21.858093
H   43.149952   70.223663    7.958647
H   56.530357   83.723862   34.464310
H   16.174755   52.003540    2.428692
H   56.894302   22.800461   60.086449
H   28.913395   11.941621   44.346859
H    0.038634    7.092229   16.525681
H   24.197914   40.282143   47.982841
H   40.862930   88.361412   80.310287
H   98.261055   57.341110   14.348595
H   17.654819   25.401928   16.478157
H   86.017181   38.003559   11.068788
H   15.316545   79.792526   61.294327
H   25.254915   54.287033   78.742310
H   98.259743   69.942673   86.692368
H   37.647568   47.685574   77.307869
H   83.560509   85.107994   52.051460
H   72.528931   27.207176   16.814671
H   23.031441   13.386489   13.501914
H   14.722803   78.087547   35.791275
H   35.190987    8.328440   90.840271
H   57.766701   43.429428    0.092650
H   47.429237   79.843063   35.364433
H   69.702011   62.426704   29.112411
H   16.331898   22.020191   95.791985
H   11.583020   36.015003   93.546112
H   47.952759   39.113548   47.851704
H   36.629681   78.185493   82.535545
H   75.017273   12.470184    0.123967
H    9.578172   38.323994   75.399849
H   45.831573   27.220337   75.262695
H   12.099380   82.798721   89.167381
H   29.462044   78.011185   54.214622
H   45.079208   93.630188   22.593824
H    6.044512   54.824020   90.943665
H    0.446385   25.310425   46.288017
H   32.234829   99.066307    1.011893
H   12.647711   27.233688   70.212112
H   39.222656   91.132126   41.946579
H   63.037949    6.148262   85.882332
H    8.975539   96.442917    9.140574
H   35.723167   52.757832   42.706097
H   61.048512   84.538574   32.094055
H   17.052568   82.737160   19.040607
H   47.218346   27.013014   75.606621
H   67.153099   86.363670   34.955143
H   21.190216   91.456024    0.256538
H   51.993767   64.548546   39.685211
H   25.853468   60.282684   73.254570
H   62.283295   59.149067   11.743477
H   60.524517   45.885494   99.408569
