100
TIME:    4.240, STEP:  4240
H   30.587879   33.191650   95.264175
H   83.377327   34.623276   45.451736
H   52.636452   78.946800   73.573372
H   82.188278   57.962456    7.753522
H   57.193756   12.612201   50.740372
H   62.275768   96.614586   98.647057
H   30.752361   47.643459   22.026529
H   86.630653   55.414974   18.890774
H   49.400642   78.634628   33.193752
H   58.972282   77.263481   73.724915
H    5.860550   36.847980   31.331551
H   94.010399   36.219780   91.121620
H   73.503983    5.188499    3.714390
H   45.140709   92.006996   79.906204
H   32.076424   91.293762   46.960041
H   31.043945   40.883232   81.083923
H   83.151497   62.412342   59.372276
H   91.742393   88.509331   52.547955
H   11.307793   56.228294   86.742126
H   78.284050   15.775019    5.011526
H   12.669098   34.112087   42.162209
H   68.873276   49.712646   58.203110
H   29.133919   60.138573   11.038230
H   25.099586   87.533813   92.173355
H   77.937653   49.907013   67.853188
H   27.218008    1.308416   91.708260
H   96.458641   66.227371   84.097084
H   74.782379   54.348572    6.922026
H    3.365230   33.777615   56.744911
H   63.573593   85.899467   20.456310
H   82.926369    2.265066   73.923637
H   33.473278   35.364746    6.745993
H   69.018288   58.263603   79.769638
H   57.251770   85.152100   93.127403
H   75.376053   38.408714   82.914658
H   41.213306   17.524220    6.098334
H   86.470078   49.258286   42.560658
H   88.745338   81.358040   21.646923
H   66.102905   89.036003   33.424370
H   63.831825   15.248416   71.629578
H   45.477432    1.670338   42.238262
H   50.554092    2.150429    2.000645
H   47.762440   88.925964    7.733981
H    8.606653   83.828461   95.299683
H   88.866997   64.600281   18.939013
H   23.385860   43.788319    0.383872
H   74.859665   55.423668   66.167442
H   56.465855   39.040588   30.925072
H   88.970322   81.292694   75.339996
H   14.803065   95.269234   87.113380
H   43.221134   60.298927   98.122696
H   11.188898   70.299744   95.712952
H   96.822670   46.593689   56.617809
H   78.502892   38.026344   18.915768
H    3.199300   30.171648   36.410038
H   98.871414    8.073721   48.287201
H   65.047897   67.203270   59.246742
H   10.336564   76.471855    4.341814
H   24.676649   17.919109   85.976234
H   79.222107   53.689465   43.014900
H   27.163404   81.391991   83.811989
H   48.428734   88.476761    3.506351
H   61.915272   17.953003   42.720940
H   34.192406   64.860260   12.022388
H    0.614288   22.201866   90.421501
H   40.875130   31.489754   96.885696
H   47.385635   94.951050   71.769333
H   87.479851   60.027481   68.899117
H   68.224747   45.126968   94.306519
H   16.289141   61.403900   92.804901
H   87.392754    6.909958   11.285545
H   24.360050   10.807746   67.055901
H   30.536062    8.579708   53.036766
H   36.871609   81.064415   51.227379
H   66.597054   34.683895   22.818960
H   25.893381   79.317589   10.631794
H   51.919991   59.052341   66.035500
H   31.183239   73.478249   48.600113
H   64.834267   41.064510   64.993004
H   91.587494   78.035088   55.641411
H   93.844345   73.146408   33.403210
H   59.458344   71.917984   32.231812
H   86.061470   78.031494   33.739086
H   41.855148   74.984932   76.157974
H   45.876877   83.670357   36.731888
H   53.710514   64.799171   36.221786
H   50.334740   95.070374   25.723204
H   24.205050   65.829597   51.648720
H   43.676376   58.095634   93.513069
H   91.465439   34.830849   75.785828
H   97.540833    2.380144   23.002848
H   92.013489   14.370800   14.318026
H   57.245705   54.739243   46.890240
H   57.040691   70.421280   12.700457
H   83.282997   69.937004   13.517909
H   44.128220   28.297852   48.447502
H   26.050915   11.005427   93.342392
H   22.429602   52.338745   88.188606
H    6.729358   55.127270   89.892113
H    2.574716   69.825813   89.287399
