100
TIME:    9.210, STEP:  9210
H   94.487701   77.420784   90.714005
H   46.118057    3.939338   58.826145
H   38.082325   36.507713   15.228977
H   83.022476   53.198845   35.330917
H   12.669687   10.979216   15.985163
H   85.197510   91.230217   90.843018
H   70.272606   83.241386   10.687176
H   95.998459   85.383957   62.563148
H   27.228493    0.787913   20.350138
H   23.201200   48.626957   68.329475
H   43.563263   36.825256   52.594200
H    4.319412   85.340431   37.350716
H   56.458542    4.519970    9.843380
H   99.057907   76.688087   58.126217
H   92.470650   47.350227    7.992805
H   31.209824    6.188651   68.530334
H   83.493538   91.141106   11.810987
H   98.016373   46.680260   80.261795
H   88.715790   64.726288   48.579227
H   44.381031   10.229315   43.392204
H   17.742256   39.332977    7.269090
H   45.352016   56.310394   34.961685
H   62.775429   19.723650   68.841446
H   63.317081   47.006561   23.059164
H    0.182834   55.762283    4.555740
H    4.179958   54.592697   24.179644
H   67.891319   59.630009   82.707565
H   55.427902   86.331375   71.207848
H   11.433618   84.695427   21.810112
H   54.145042   62.891953   15.557224
H   78.527962   47.933910   80.713211
H   47.282276   98.051208   46.648232
H   19.096619   94.635406   27.506491
H   67.246506   29.681061   83.749214
H   51.744331   62.343758   85.396637
H   73.247116    6.798905   90.471992
H   63.156898   67.244881   34.177204
H   83.325279   90.405342   72.364479
H   56.316654   80.747520   51.794815
H   95.714615   49.974419   62.659431
H    5.813643   72.198151   59.328091
H   24.045380   77.720184   50.146900
H   90.548431   18.736652   66.719536
H   91.257484   67.238930   81.238716
H   57.755768   68.524071   44.237331
H   59.241791   38.577465   20.577971
H   13.697076   25.709909   13.876637
H   56.749752   90.230011   38.439762
H   34.247299   69.677223   77.084412
H   19.101683   70.918999   39.569653
H   42.869190   80.477226   50.516815
H   52.735271    9.119019   69.456856
H   99.906380   75.411438   67.971512
H   63.404861   56.938240   38.227364
H    7.480651   65.726196   78.675537
H    5.066803    2.845697   79.096649
H   80.125534   23.796059   31.935186
H   40.259949    7.116016   76.326317
H   16.651878   27.924471    4.433287
H   51.252918   35.699612    1.656276
H   40.675892   50.262630   96.313713
H   72.037010   42.216690   78.632591
H   99.327057   78.808983    1.913116
H   75.474854   91.933777   77.089310
H   97.882950   25.255909   53.256016
H   35.563911   84.417290   90.751442
H   48.633194   66.773315   11.720638
H   44.168137   44.267586    6.493866
H   15.926266   88.014481   82.597839
H   17.075302   11.239819   82.309357
H   29.566597   68.751320   51.675240
H   14.846377   45.792381   31.135426
H    6.482639   62.744389   25.604717
H   27.461727   66.517738   55.926491
H    6.126446   41.876469   99.610153
H   43.388878   97.847038   76.212479
H    3.247002   28.651424   54.085480
H   64.674583   48.508018   23.083435
H    3.167659   26.466045   20.440531
H   47.857994    7.306600   27.471397
H   91.116554   24.564035   30.452568
H   32.407318    4.202913   16.495668
H    0.426075   61.142002    7.056242
H   83.782066    0.278548   22.226444
H    3.880905   72.778549   54.947418
H   39.323895   47.353348   81.353485
H   82.269920   33.710136   62.711525
H    4.150840   68.082314    0.084664
H   46.819096   81.374443   52.864876
H   52.051685   30.351929   53.450462
H    0.933834   70.742294   27.960472
H   59.745632   88.159729    9.016038
H   75.832306    3.859383   31.228022
H   37.376030   71.932968   47.813702
H   97.353958   24.753780   27.721056
H   54.629837   32.038391   91.740265
H   31.555466   96.221947    7.512352
H   20.499880   42.170940   93.987144
H   69.969902   76.573204   73.604057
H   11.280777   42.290379   10.510931
