100
TIME:    0.909, STEP:   909
H   55.850258   38.661324   98.313797
H   75.984734   54.030743   35.339626
H   95.382324   39.300716   12.666718
H   81.629181   95.198387   90.337761
H   87.029221   45.617882   41.057930
H   13.920704    0.224329   68.767662
H    5.330525   22.717283   61.537754
H   48.440689   67.241043   24.732445
H   31.283043   98.896637   42.869011
H   49.999016   29.435932   43.286423
H   15.702057    2.818238   52.189484
H   21.145741   69.254204   28.225004
H   85.440689    6.711590   34.781868
H   10.073414    2.274611   26.415279
H   91.557732   88.829102    7.076822
H   64.975296   32.229229   57.585434
H   50.984291   42.110611   56.117363
H   20.569054   50.496048   68.033005
H   59.418877   16.486109   11.253199
H   68.043587   86.473785   78.201851
H   10.335190   65.724457   32.572670
H   49.508717   45.299713   41.856113
H   73.607567   87.229378    6.341797
H   34.585602   47.583775   39.564720
H   97.073601   14.083965   43.269356
H   42.490978    0.525145    3.972954
H   83.694962    4.690169   18.004271
H   55.841461   98.868240   96.819443
H   30.936493   31.563223   14.203587
H   35.847713   68.342117   55.651333
H   51.859226    3.557691   37.481041
H   23.151831   27.397842   15.113365
H   34.386272    1.975967   79.686852
H   16.509560   90.418373   33.455757
H   58.177208   90.206612   80.080002
H   51.589172   55.891613   17.516592
H   66.983086   71.246437   80.091011
H   26.420509   42.316898   86.587120
H    9.854353   61.103523   55.004257
H   77.575310   27.085440    9.551912
H   73.120575   87.371574   63.760098
H   49.925438   52.655533   45.506413
H   19.070585   68.950943   67.130074
H   21.313414   28.004908   69.610481
H   77.805946   96.027328   33.893631
H   66.342049   80.292290   86.882942
H   45.678272   74.777069   35.390572
H   56.287960    4.742445   24.821669
H   91.602226   57.164925    8.212878
H   44.954426   44.584957   20.088547
H   43.475269   81.885262   63.001225
H   49.308205   79.390976   14.387100
H   27.735407   27.279419   50.077278
H   55.639988   92.372581   71.928360
H   68.395325   38.192577    8.119579
H   94.703598   11.576630   61.682297
H   53.877274   63.318169   42.440971
H   58.372498   91.043587   90.141068
H   61.966652   77.175797   41.699108
H   99.035019   97.655716   37.755455
H   17.040945   36.298355   43.522453
H   66.648956   19.484512   54.226883
H   35.889664   45.166862   71.197121
H    5.458188   46.739220    2.458967
H   68.403755   88.243797   80.214989
H   45.503944   97.084084   99.933037
H   14.637777   79.788269   10.948544
H   17.575127   69.523727    9.658057
H    2.205353   84.471390    3.220571
H   48.799728   93.862938   99.819031
H   93.166679   33.553356   51.245396
H   99.016434   21.357750   23.173929
H   47.723602   73.342506   38.440807
H   10.183648   91.856155   49.184029
H    5.999200   29.937098   70.306206
H   47.149570   65.832420   34.765690
H   49.486691   47.760124    7.118528
H   74.686798   91.283440   64.642456
H    5.122031   50.839695   27.824131
H   54.946487   59.449608   42.609955
H   28.670322   38.685680   34.316875
H    9.525700   50.164017   10.767534
H   75.311043   22.428915   16.477482
H   12.700163   89.945900   80.402962
H    8.068352   92.025040   59.635094
H   30.370823   42.444035    4.906914
H   27.864782   37.261223   66.887711
H   70.588272   32.517082   86.292168
H   74.546822   43.560097   20.763187
H   85.969040   71.880707   56.709042
H   61.222569   22.515570   52.658154
H   45.543751   63.871529   50.842194
H   43.606697   54.866142   89.237328
H   35.086197   68.371590   88.107735
H   40.876667   68.307770   36.973534
H   69.001251   59.835503   20.498131
H   90.450485   19.845854   84.911484
H   10.202691   23.977264   41.492119
H   65.409386   40.768635   68.907875
H   95.693405   55.356144   10.136074
