100
TIME:    8.448, STEP:  8448
H   46.018059   47.299156   91.411636
H   67.163284   62.650494   10.778037
H   24.984285   81.687149   24.173325
H   82.894577   84.592278   77.099800
H   19.497759   49.901707   36.644440
H   97.010742   92.055748   15.379401
H   10.211061   31.787401   51.097767
H   55.890152   19.461672   32.526489
H   45.959908   74.051880   68.316910
H   44.015114   37.685764   38.494087
H   14.442642    6.166276   25.995726
H   33.404846   47.145092   91.591591
H    5.048705   50.639610   85.568008
H   36.786308   79.036781    0.135589
H   83.215401   15.415817   44.635918
H   61.847565   72.835960   31.783466
H   44.769173   40.739887   42.443123
H   81.718735   83.759392    6.677825
H   76.844421   32.757442    8.436328
H   64.909103   26.411467   91.511757
H   62.960426   15.191814   27.951361
H   72.298332   55.298828   99.853073
H   72.949226   25.918039   90.642441
H   34.116653   37.890839   79.652481
H   27.434883   16.191185   98.930336
H    7.774216   77.056442   95.887482
H   33.598183   91.303299   67.592209
H   19.724268   50.763783   46.019188
H   94.864128   15.560799   57.830345
H   24.926598   81.751266   54.980194
H   48.538425   79.603859   41.000206
H   99.169304   19.103619   17.190361
H   65.423843   50.386238   58.859512
H   35.050797   99.514008   15.850615
H   70.708290   20.037834   39.035870
H    7.008073   47.114502   92.867195
H   90.072166   95.150154   74.134727
H   14.821337    4.347815   18.593597
H   88.478874   97.351158   25.638153
H   67.485397   21.309610    2.705208
H   57.890427   46.052574   41.375698
H   88.262390   74.731995   11.246560
H   83.990692   14.164841   11.681795
H   39.910358   54.444672    6.736102
H   23.854698   98.580376   79.029228
H   69.075584   24.045059   17.482229
H    7.739559   84.268745    6.558912
H   56.703243   82.381653   91.291939
H   11.975403   32.786697    7.478935
H    3.107302   59.317402   92.848137
H   42.921513   54.043770   42.482422
H   15.701380   79.827576   19.477818
H   84.105019   70.993103   12.225424
H   81.054749   69.371017    4.603877
H   68.152534   98.946686   72.199188
H    4.117733    3.647247    5.036942
H   31.818405   45.783089   59.462563
H   97.000671   79.077736   95.953026
H   56.551632   95.726067   62.934158
H    1.538934   77.129959   23.329369
H   92.606552   85.700073   55.722530
H   99.081871   49.309280   13.108856
H   47.595814   30.807093   54.165741
H   23.148422   87.782867   97.774094
H   67.640610   86.116364   82.294174
H   82.375008   22.298088   45.696049
H    9.769388   40.431286   74.931381
H   96.804459    0.686860   70.065857
H   77.949890   42.766930   30.388855
H    1.599258   72.964371   83.925537
H   53.768314   20.598511   60.814217
H   77.594574   71.093163   75.280319
H   56.165909    0.439526   45.144222
H   44.233959   14.746353    1.202735
H   69.419861   40.754444   41.834614
H   25.372538   49.011024   27.486498
H   34.041824   94.604004   40.568863
H   28.879892   98.330559   80.996033
H   66.623787   28.704281   11.935930
H   85.227806   48.817131   93.118553
H   76.198860   16.680796   84.908356
H   75.226730   99.257034   80.243965
H   52.229897   48.398594   34.488049
H   31.358616   35.073219   91.823357
H   40.983292   20.448025   28.814175
H   56.863522   19.362183   28.438110
H   31.377672   89.113731   26.376534
H   91.896111   29.056438    7.985396
H   31.005924   23.800970   59.097054
H   19.421865   61.704666   26.213137
H   69.749657   29.598507   11.868430
H    3.365350   30.849331   94.496971
H   26.986454   80.999382   72.301392
H   63.731148   25.703236   96.434502
H   10.529480   93.008774   10.212923
H   91.691727   62.129578   31.098915
H   92.040123   52.492058   51.336601
H   21.970720    4.467701    9.286768
H    6.269879   73.282707   37.429134
H   63.947498   61.841511   83.917557
