100
TIME:    9.223, STEP:  9223
H   93.608551   76.228615   90.702103
H   45.759018    4.643816   59.645885
H   38.305782   37.443001   15.076361
H   83.024658   52.663261   34.618294
H   12.553198   12.021198   15.632694
H   84.995972   91.216133   92.130402
H   69.591225   84.119148   11.703793
H   94.976685   86.508682   61.369492
H   26.908928   99.537994   19.531836
H   22.846079   48.813618   68.838478
H   42.354034   37.348343   51.341927
H    3.823204   85.992058   36.425346
H   55.629578    3.733133    8.551483
H   98.414215   76.648018   59.115559
H   92.628548   46.189003    7.367648
H   30.687084    5.051602   67.451233
H   82.448158   92.001015   12.994429
H   98.294479   46.047676   79.811111
H   88.918320   65.271591   49.264080
H   44.030819    9.953241   44.277306
H   16.970818   38.038750    6.916212
H   46.598339   56.327652   33.854614
H   62.601860   19.617971   68.469513
H   62.109142   47.162079   22.093676
H   99.717880   54.731285    4.651699
H    4.118639   54.209457   22.956282
H   66.770363   59.089565   82.965439
H   54.331047   86.938171   71.637505
H   11.716311   85.874901   21.195629
H   54.643532   62.570206   16.590652
H   79.039543   49.099598   79.684692
H   48.103107   97.691971   45.444756
H   20.012367   93.684250   28.677633
H   67.795776   28.489685   83.201530
H   51.420799   61.359474   86.187515
H   74.377197    7.817158   90.431129
H   64.403748   66.768806   35.201557
H   82.787910   90.167503   73.281914
H   55.767879   80.464256   50.535004
H   94.490112   48.757355   63.682297
H    4.925206   72.644272   59.634365
H   22.949814   77.771164   50.810528
H   90.660309   18.814659   67.658592
H   90.427528   67.457130   82.509834
H   56.628166   68.011299   45.349857
H   59.074074   38.825420   20.630785
H   13.798713   26.416929   14.001482
H   56.750546   90.363907   39.244129
H   34.627266   68.600502   76.565887
H   19.374533   71.116966   38.660648
H   42.868298   79.222176   50.653885
H   53.367062    7.912715   68.603493
H    0.176001   75.486816   67.216537
H   63.103844   56.726089   38.801033
H    6.445549   66.865402   78.786026
H    5.082994    2.832023   78.654099
H   80.949738   23.420952   33.171593
H   39.291931    5.888302   75.991478
H   17.677174   28.473791    3.435266
H   50.395092   36.698872    1.286528
H   41.496029   49.658115   95.300270
H   71.575615   42.095688   78.044441
H    0.209593   77.921898    1.021667
H   76.367493   92.004593   76.736420
H   98.398895   24.217571   54.466633
H   34.765297   83.771019   91.520103
H   47.590195   67.222809   12.348312
H   43.270142   45.011055    7.115341
H   16.574221   87.080383   81.782562
H   17.339325   11.892759   82.281784
H   29.153751   67.866814   51.519325
H   13.775880   45.360741   32.088314
H    5.635016   62.101391   25.271366
H   27.175587   65.694923   55.154060
H    6.752633   41.895611    0.595815
H   43.696243   98.680168   75.337692
H    4.427703   27.526203   54.316078
H   65.285347   47.658028   23.801414
H    3.791037   26.427860   20.585634
H   47.220451    6.598402   26.351433
H   91.371056   24.698526   31.229561
H   33.382774    4.287305   15.408087
H    1.248354   61.359409    8.294324
H   84.676491    1.391003   21.039135
H    3.247925   71.965256   53.687210
H   39.024662   47.830910   82.256241
H   83.138161   32.764931   63.331413
H    4.359903   67.042091   99.949905
H   47.088871   80.650612   52.758553
H   50.902264   29.817039   53.915131
H    1.465865   71.444305   28.235008
H   60.707500   89.137466    9.263696
H   76.665634    4.249464   32.233330
H   38.632370   72.721664   48.690273
H   97.129211   23.589283   28.019743
H   55.703583   31.525072   91.068802
H   30.523624   96.967995    6.764692
H   20.474787   42.814137   93.726097
H   69.350609   76.629341   72.515236
H   12.088243   41.956829    9.258583
