100
TIME:    5.711, STEP:  5711
H   31.110319   98.294456   93.917435
H   42.750648   14.333667   38.202297
H   77.927689   84.776505   56.307644
H   82.435181   97.356171   27.123142
H   44.018143   30.519258   10.857014
H   39.459736   95.020943   44.325993
H   53.655643   46.972401   37.060719
H   71.012955   82.675858   83.828896
H   13.240654   37.204102   40.599922
H   18.774038   98.384865   31.326414
H   69.031723   96.037231   89.637062
H   37.868530    9.953466   86.414162
H   79.636185   16.234959   57.548027
H   72.306358   87.472969   91.849190
H   49.965630   59.897873   76.250732
H   71.896774   12.224175   58.978241
H   64.862465   59.707729   93.283203
H   23.193785   16.940746    1.553591
H   34.218678   17.935961   64.237900
H   38.652161   84.533485    5.164036
H   25.377876   87.669067    2.238384
H    9.899475   51.665421   32.933853
H    9.493020   48.175026   68.951843
H   88.423805    5.148409   82.924988
H   25.325695   33.249054   78.716896
H   20.512362   57.829231   53.380363
H   69.613846    5.076565   13.280678
H   50.663692   23.009865   55.550064
H   35.351418   67.238586   87.210632
H   19.978344   49.492577   37.396286
H   40.819321   34.172161   57.542793
H   26.353123   94.724564   70.568184
H   72.633171   50.638145   12.288938
H   19.404892   50.343620   31.154963
H   38.812042   27.212175   72.487350
H   69.085098   32.739159    1.471180
H   27.558548   95.385376   58.469769
H   27.946651   54.441685   25.451183
H    4.007765   56.983574   90.874260
H   25.281408   77.539009   87.364159
H   44.944916   52.139595   76.894386
H   18.922176   63.998825   71.514793
H   60.433025   97.747116   13.985942
H   14.677759    8.501913   39.127266
H   61.267780    6.566407   44.816387
H    4.405824   71.845413    6.362750
H   86.351852   35.422195   80.285774
H   56.544415   54.191422   21.942205
H   31.968147   59.463799   16.659405
H   45.654652   17.656424   84.229294
H   43.109447   18.283331   13.630198
H   82.676750   33.801060   99.144295
H   27.335201   55.123047   71.184196
H   44.436798   14.020923   83.827538
H   86.076347   59.090542   48.923504
H    0.708775    6.526305   98.210876
H   58.303154   24.758492   99.150963
H    0.803107   37.554497   66.453110
H   40.690811   80.072639   73.047371
H   82.151489   66.755646    1.176162
H   19.954857   12.984499   69.120445
H   96.223366   74.784897   36.949860
H   61.781498   17.574556   41.850037
H   35.203514   72.873367   72.088150
H   59.003876    4.715632   27.409910
H   50.510155   58.362328   83.862221
H   29.364681   45.805714   42.789871
H   85.867821   44.155918   39.221424
H   41.538197   39.430290    2.047651
H   46.088737   35.388657   89.707397
H   40.683296    6.824221   93.640175
H    3.069580   61.987991   74.755295
H   34.623978   35.816490   15.316803
H    4.490086   87.969749   63.825249
H   37.521519   36.782566   34.331070
H   60.672958   73.595268   11.652081
H   85.476891   31.554239   92.050041
H    0.293489   77.292824   29.836824
H   35.375927   36.743717   81.400795
H   19.452061   97.913948   28.913311
H   22.627337   88.364578   21.322050
H   69.837311   81.507492    9.215531
H   79.108742    2.627271   73.830933
H   43.057259    0.861395   41.805080
H   74.250710   91.658165   94.135086
H   19.851208   18.827877   38.372482
H   48.579506   88.116554   95.865952
H   47.877586   48.074039   36.363564
H   74.202499   76.193031   81.482185
H   61.410480   74.310837   28.372377
H   57.740318   81.808701   54.067669
H    0.855066   25.000906   42.343277
H   51.539536   98.876503   60.644978
H   99.214272   59.652905   11.882977
H   57.852043   38.173298   47.318241
H   65.626770   70.210541   72.468292
H    9.290291   95.423454    8.744388
H   27.253778   69.037231   64.230797
H   36.654083   61.468174   66.681969
H   93.943863   32.081676   47.582409
