100
TIME:    0.313, STEP:   313
H   96.155922   93.317696   98.859451
H   92.563530   21.715092   97.744507
H   85.142212   96.422676   19.664734
H   81.529144   19.754656   23.006319
H   92.367538   97.845856   57.218391
H   23.162724    0.872989    9.742615
H   36.566288   82.473061   14.929755
H   95.285110   15.680965   79.455742
H   45.933861   56.199738   80.385307
H   66.286797   20.880527   19.946062
H   71.140533   78.836823    9.600079
H   43.894978   39.379631   70.649422
H   23.352798   42.770538   94.019493
H   39.583988    4.112216   81.059685
H   84.309624   42.064270   35.726597
H   88.938614   84.360176    7.058013
H   98.901833    2.696259    1.853022
H    7.833295   79.479385   88.695114
H   50.138206   91.483231   79.852310
H   84.176765   98.969269   37.541512
H   45.702682   25.057129   48.746773
H   92.360207   44.513062   92.603951
H   81.565025   92.076607   23.395123
H   89.960419   40.435703   83.828888
H   18.388731   61.351269   38.869766
H   45.223797   18.283112   59.835251
H   35.088207   29.465591    6.177301
H    6.131372   71.048965   77.121323
H   17.977203   77.489891   42.376099
H   12.995633   83.092972    8.271488
H   28.414278   50.110741   84.643761
H   85.520447   43.862961   70.288109
H   92.404846   45.581352   25.994467
H   91.326897   45.038055   58.564949
H   72.991722   35.259872   43.787430
H   99.768822    9.073362   19.567343
H    9.820130   93.072609   33.128368
H   51.052254   53.225437   44.528370
H   36.648907   73.826363   12.126672
H   33.712589   82.881401   62.661423
H   13.852123   66.918633   49.714046
H    3.490521   25.904833   17.505255
H   13.937345   65.376907   24.081749
H   59.372162   18.017160   11.335407
H   29.505367   19.542404   82.891541
H   73.953926   69.088188   84.545723
H   39.385059   42.625912   30.297796
H   56.256130   98.605438   87.944626
H   74.177666    6.527269   31.987864
H   32.454395   35.513454   61.771988
H   43.520741   39.425758   56.717106
H   20.343969   34.694656   53.515060
H   15.371847   23.823608   84.691780
H   69.438705    2.095070   45.627827
H   15.841129   85.944168    3.062099
H   93.957870   12.202995   81.971542
H   16.095261   80.515373   85.756279
H    2.752483   47.327766    5.492558
H   14.963081   51.993851   87.454437
H   38.363533   51.846832   54.707115
H   79.444809   64.013046   89.992004
H   87.802155   25.031998   81.192947
H   95.463097   85.809013   12.085065
H   64.533760   43.497124   18.642164
H   44.745941   35.845226   24.709932
H   82.117348   26.712971   64.692863
H   62.456108   59.181789   82.173630
H   58.744743   35.438522   81.165810
H   72.503288   27.296135   40.602055
H   36.727127   63.888313    1.072573
H   12.093019   74.107979   58.393467
H   48.158352   41.137718   79.538490
H   86.583282    2.825588   53.723675
H   23.301582   29.572111   84.606087
H   77.262009   29.089060   25.125679
H   33.058048   27.632555   74.867966
H   95.373077   99.415398   96.571594
H   46.685638   30.254105   31.725948
H   76.556313   52.584736   21.178516
H   84.175369   91.907585   93.956024
H   17.006962   32.519787   98.696304
H   64.808830   46.271683   60.607658
H   37.600422   12.481690   59.711548
H   71.702179   38.945408   34.841072
H   37.089630   29.305443   17.410488
H   44.089481   20.550846   63.518925
H   88.059273   80.595268   38.468212
H   60.993851   80.234550   92.485344
H   62.178658   76.744972   25.639973
H   38.662422   96.407867   35.401241
H   36.831821   90.332779   40.071728
H    1.445482   19.046686   39.488037
H    5.367008   37.009605   43.129539
H   77.480782   32.217995   47.922115
H   51.180439   21.692722   23.279060
H   19.774139   83.371391   51.282127
H   37.757561   85.642921   19.188103
H    8.014390   18.902679   51.027428
H   93.801598   38.199512   18.833614
H   58.679852   70.664314   67.539658
