100
TIME:    2.769, STEP:  2769
H   30.065693   68.089928   96.610916
H   24.245537   54.876678   52.667652
H   27.351393   73.117096   90.834099
H   81.941376   18.567503   88.384827
H   70.369370   94.705078   90.626343
H   85.081429   98.208229   52.969753
H    7.847798   48.314522    6.992335
H    2.248360   28.155733   53.954327
H   85.560631   20.065460   25.787956
H   99.172493   56.142097   16.119974
H   42.689392   77.659332   73.024734
H   50.157036   62.486328   95.829079
H   67.124977   94.178879   49.912483
H   17.976326   96.541023   67.963219
H   14.181629   22.688936   17.668543
H   90.188400   69.542206    3.189907
H    1.440549   65.117081   25.461344
H   60.317131   60.044182    3.547451
H   88.393990   94.515076    9.245127
H   17.918037   47.011097    4.859016
H   99.960342   80.554840   82.086929
H   27.847076   47.759872   83.472366
H   48.773888   72.102119   53.126343
H   61.771408   69.891510    1.422845
H   30.547878   66.565216   56.991737
H   33.962383   45.101307   29.633432
H   23.304485   27.372499   54.914211
H   98.902275   85.687279   58.302174
H   71.379913    0.317658   26.279631
H    7.169635   22.307571    3.516543
H   25.032084   70.356369   90.304482
H   40.593452   76.005959   42.923851
H   65.403412   65.889061   47.250343
H   95.097511   19.960312   55.097168
H   11.941226   49.605011   93.341957
H   13.308045    2.003641   11.121366
H   45.381920    3.128206   26.651548
H   49.542259    8.273472   17.842663
H   28.192162   21.084738   75.975677
H    2.384959   52.959297   55.894207
H   46.009678   51.193188    7.582570
H   82.759209   36.132637   32.890503
H   35.091854   80.104813    1.481888
H    2.540306   59.180908   51.471642
H   16.465727   22.641163   93.061378
H   42.363682   15.731220   94.412727
H   63.366863   75.425140   52.039612
H   56.387295   23.892759   39.907936
H   45.969109    3.121733   34.017166
H   83.957329   72.890892   89.997467
H   43.333363    2.314059   82.612732
H   39.700291    6.796294   92.281609
H   66.318993   38.064331   42.050484
H   12.571293   62.031998   54.004486
H   20.319862    1.249988   23.901381
H   97.030869    9.621864   98.363510
H   71.793327    9.648620   19.342522
H   19.870941   15.389600   42.233353
H    8.662666   55.765957   98.905220
H   76.292725   40.622936   84.853645
H   34.371803   49.799641   98.503525
H    0.637313    2.169056   70.067551
H   62.053516   18.328176   43.594162
H   33.181320   56.857170   51.964474
H   42.228825   39.688625   53.433350
H   31.241035    4.617718    9.909922
H   65.406471   44.093533    0.748844
H   89.091881   75.899048   98.576813
H   94.907860   50.823647   86.565590
H   86.484436   87.415596   95.902405
H   34.105095    6.996615   28.933460
H   45.650139   59.627396   59.356026
H   26.447992   81.340050   90.748772
H   69.255028   74.152557   38.638649
H   95.676781   32.585224   11.306732
H   91.117714   85.039909    9.611517
H   18.361860   86.548477   40.020954
H   62.072979   69.663673   67.362946
H   94.297165   45.385303   48.574669
H   63.728371   58.149647   82.369431
H   65.068985   57.928234   45.485050
H   49.085762   62.311234   55.235573
H   92.994431   53.475922   93.633545
H   40.653042   49.108490   10.512207
H   17.501900   75.682541   79.328987
H   87.562012   10.763573   34.071087
H   52.089973    2.024065   55.579941
H    0.530470   83.601669   66.947609
H   13.147051   39.998238    5.545841
H   21.521431   95.349808   23.203369
H   37.341522   22.950237   91.937943
H   83.169037    3.751577   86.285225
H   62.948383   10.602810   33.133125
H   14.861660   81.193581   13.518502
H    8.715462    1.698644   79.715843
H   22.629669   86.386909   24.426712
H   42.811874   26.587597   77.941750
H   17.031416   39.814056   11.729952
H   76.804741   48.786366   13.104660
H   11.205551    7.579163   30.991690
