100
TIME:    4.549, STEP:  4549
H    9.692329    4.854906   94.981277
H   74.843239   51.368477   64.936218
H   57.947861    1.177809   69.947563
H   82.240143   45.232048   90.816658
H   54.426071   37.379913   42.361877
H   57.483006   96.279823   29.248613
H   14.557686   68.509033   46.190731
H   62.343864   82.148071   90.519585
H   41.804832   48.925629   13.743200
H   50.527779   81.700264   85.823517
H   77.118134   49.281345    1.567161
H   82.218269   51.708443   69.126305
H   53.785995   86.502769   73.010498
H   29.840813   91.054573    3.420058
H   35.834251   63.692352   32.105541
H   18.618832   13.857000   55.434509
H   58.303627   82.851532   87.501762
H   98.345940   73.477791   41.834423
H   16.120594   69.191147    3.022496
H   69.957420    9.212965   26.049662
H   94.332619    3.349334   33.776642
H   98.497406   50.122849   31.888885
H   25.008324   57.625496    2.197080
H   96.390076   91.239777   69.225616
H   66.885773   25.400978   70.135231
H   25.809412   92.175217   62.650036
H   69.814369   53.381855   90.226540
H   48.710003   68.771652   17.136477
H   10.084632   61.812801   42.137947
H   75.422302   78.251793   45.020729
H   95.086266   29.973450   49.476540
H   52.983807   26.828300   78.140343
H   90.782570   35.655342    7.606801
H   70.307510   56.834015   80.109383
H   67.695374   15.050749    1.731879
H   68.074463   41.726139    5.126167
H   16.107637   37.942368   66.908737
H   75.972496   75.704796   43.451283
H   53.059330   82.303032    3.480703
H   34.728699   86.321175   95.939941
H   24.359528   12.272084   49.518169
H   22.782944   16.019060   16.517313
H   50.424038   90.778946   30.053236
H   88.874939   89.005493   25.512194
H   62.062588   52.409622   45.381123
H   19.399357   49.682026    1.640024
H   77.273727   72.227806   69.133156
H   56.482357   42.223190   50.044258
H   98.004196   55.700626   63.014885
H   21.283787   99.970055   65.499977
H   43.197559   30.467278    1.380491
H   26.204885   41.626194   75.429169
H    3.231270   48.385376   38.670292
H   71.345573   32.983688   32.550316
H   78.596649   57.252056   39.038631
H   99.258041    7.748616   37.768112
H   84.638580   58.287270   88.635124
H   87.327774   47.290932   96.382553
H   49.045952   30.976028   62.255066
H   58.830479   77.439774   34.226204
H   46.655365   67.020775   59.718933
H   37.461723   85.600632   89.525986
H   82.892387   96.867111   21.531883
H   55.412109   66.543503    3.632107
H   12.879262   97.522583   19.197721
H   21.892677   16.128395   15.155700
H   22.593897    5.634379   86.687485
H   66.135201   77.699173   83.671104
H   83.623825   22.924194   74.928009
H   22.549437   76.944824   92.154236
H   77.580910   85.885727    7.578437
H   98.881805    0.552311   89.678307
H   10.387835   93.295113   45.113266
H   30.067913   61.511150   32.867302
H   81.496346   35.124744   46.243374
H   33.199219   99.120445   89.839615
H   79.975052   32.268978   71.500145
H   45.700619   53.273365   65.665703
H   79.653404   40.156879   68.439644
H   76.433594   61.206982   29.020714
H   99.888931   76.343155   51.871731
H   82.642296   73.935989    6.392630
H    5.607933   83.194641   63.168682
H   63.112572    1.426494   47.935532
H   30.831327   64.343712    6.777892
H   46.597988   76.148094   57.679596
H   70.972145   72.603561   40.457474
H   29.178160   41.090172   48.435471
H   50.088730   40.890724   90.985847
H   64.146927   22.116943   86.832993
H   10.186545   19.065144   29.528360
H   14.877591   37.608467   20.205839
H   77.053276   64.011223   70.785690
H   86.905838   89.163269   33.534626
H   77.940941   42.258301   20.617676
H   69.650330   16.096699   32.487343
H    1.524493   28.738247   75.571686
H   23.563551   54.969696   83.242607
H   92.009369   56.459248   64.011665
H   21.767313   61.895870   59.521465
