100
TIME:    2.448, STEP:  2448
H   51.773834   97.527336   96.904800
H   33.174721   37.471382   32.419025
H   21.833715   50.022690   94.600716
H   81.887497   31.793520    5.979255
H   73.244537   68.975510   99.330215
H   90.057869   98.555992   21.179239
H   24.671154   26.638107   81.889641
H   27.478325    0.385839   83.426857
H   93.451424   50.928207   45.994572
H    7.943827   51.533012    3.549178
H   72.548035   64.743118    3.946089
H   62.409561   46.396164   18.677664
H   87.545036   13.600136   81.817436
H   33.870567   97.530434   43.534489
H   10.276642   51.361847   33.098778
H    3.095065   97.617950   29.836584
H   27.251892   43.887154   96.238007
H   53.457382   75.654335   14.677094
H   83.393059   81.050278   92.333313
H   26.565582   53.826763   83.003883
H   19.008835   12.510761   90.800598
H   97.072495   47.333740   10.808426
H   53.059700   74.712791   62.310226
H   91.595764   66.041626   25.263901
H   42.028801   92.025391   54.623520
H   35.434254   54.664791   59.719933
H   50.985550   40.716869   48.544270
H   25.987070   70.704079   47.690502
H   64.400162   71.193733   41.453392
H   94.861183   30.252243   77.997734
H   12.400502   41.571407   15.702122
H   20.325233   84.876366   72.640450
H   42.791615   89.375313   18.332129
H   81.534752   49.378128   68.620743
H   19.921097   73.870056   73.793755
H   85.398270   76.788261   12.224656
H   14.594403   14.884790    1.358248
H   62.808685   14.148708   95.190681
H   41.742676   28.077959    7.083104
H   32.619495   83.009865   30.637369
H   67.946129   40.179874    0.018356
H   11.608917   21.724960   17.810495
H   32.326893   78.179871   78.294518
H   23.037592   53.800377   20.086786
H   44.309498   35.305126   65.592995
H   46.505001    9.608631   93.109840
H   60.856602   57.968414   48.956276
H   56.370152   20.587786   20.046257
H   36.586853   29.706066   46.823174
H   77.227379   68.007515   12.448948
H   43.357853   33.305321   79.228165
H   24.100554   36.582890   13.354572
H   59.660919   36.203064   60.694992
H   20.004116   67.268959   39.839264
H   45.875549   73.110504   21.178053
H   96.629227    9.959219    9.291107
H   51.443356   18.911293   88.812538
H   43.773529   45.704422   50.501297
H   83.345345   42.203197   23.548586
H   97.476883   15.948904   93.983650
H   14.122152   64.726631   23.530750
H   12.029003    5.157492   84.590332
H   40.279140   40.218422   65.615891
H   11.138708   55.111008   60.680592
H   29.486732   65.327454   23.538317
H   50.960670   20.575569   90.930214
H   91.160530   32.996952   85.251297
H   11.265760   57.541077   83.231155
H   78.910759   73.888664    6.697297
H   79.979797   71.271553   96.578339
H   44.297981   28.838087   32.784817
H   72.117615   70.280701   35.852631
H   47.377777   97.219597   98.977531
H   76.318047   94.464859   57.716637
H   80.198875   32.127254   86.972641
H   83.530602   64.468010   31.210606
H   89.217499   14.370169   34.344090
H   46.991817   90.651909   49.634838
H   78.902527   46.328182   44.991730
H   79.470772   75.631683   10.023791
H   58.787624   54.607342   26.299667
H   24.999496   60.214859   82.077003
H   72.687027   48.117432   63.059788
H   18.570087   21.640108   39.832062
H   33.132782   95.759735   10.446246
H   94.948303   98.972755   11.779849
H   30.651114   25.363388   40.273468
H   95.363129    9.301643   70.288094
H    6.484975   57.871300    8.172106
H   49.902851    8.556595   11.728641
H   24.204895    5.617230   85.159012
H   59.417820   79.613579   80.167534
H   42.351994    0.984795    8.298927
H   83.836342   61.723461   91.874794
H   14.266201   30.452705   72.339348
H   96.116318   99.063118   41.006683
H   68.291641    8.166211   96.402580
H   15.853354   37.080933   16.866295
H   92.096519   47.402660   39.992622
H   91.270370   15.824438   61.908356
