100
TIME:    0.270, STEP:   270
H   99.063881   97.261024   98.898819
H   93.759651   19.383705   95.032074
H   84.403412   93.329033   20.169624
H   81.521927   21.526365   25.363295
H   92.752686   94.399216   58.384331
H   23.829514    0.919789    5.484098
H   38.819759   79.569695   11.567018
H   98.664825   11.960966   83.403664
H   46.990883   60.334000   83.091835
H   67.461922   20.263275   18.262110
H   75.140289   77.106613   13.742050
H   45.536282   37.224251   73.710258
H   26.088032   45.372086   98.293510
H   41.713123    4.244795   77.787575
H   83.786690   45.904915   37.793728
H   90.667511   88.121101   10.627338
H    2.358896   99.852638   97.937950
H    6.914429   81.570465   90.185837
H   49.468628   89.679535   77.586700
H   85.340736   99.870789   34.607964
H   48.254364   29.338036   49.913696
H   88.237099   44.456306   96.265144
H   82.139137   92.426323   24.625526
H   93.955582   39.919987   87.022263
H   19.926531   64.761421   38.552200
H   45.420551   19.564774   63.865410
H   38.796314   31.253048    5.324048
H    9.759453   69.041870   75.700150
H   17.042221   73.588554   44.408783
H   11.346866   84.157211    4.853188
H   26.722780   46.254677   88.046440
H   82.805389   45.050880   74.268837
H   89.376160   48.727486   22.120687
H   89.510078   48.978760   60.376518
H   74.060555   38.510330   41.169151
H   96.030205    5.695452   19.715300
H    5.695898   94.647316   29.740124
H   52.829376   54.012463   41.494106
H   38.582188   74.744286   16.248062
H   37.762539   86.906746   59.278099
H   16.790592   65.443001   48.700657
H    7.355118   23.974833   15.485057
H   13.567042   65.119049   20.975803
H   62.118057   17.296568    7.131104
H   33.235237   21.238987   79.211975
H   74.503105   68.279839   84.377098
H   38.931019   40.306171   29.930365
H   56.253834   98.162552   85.284027
H   72.920525   10.088421   33.703308
H   31.552549   34.858967   64.779434
H   43.524021   43.577080   56.263721
H   18.254366   38.684898   56.338051
H   14.479923   23.574280   87.189003
H   70.434052    2.796717   43.730305
H   19.264473   82.174713    2.697230
H   93.904068   12.248249   83.435364
H   13.369299   81.756111   81.666634
H    5.954510   51.388542    6.600183
H   11.571884   50.177032   90.755417
H   41.200958   48.541588   55.930138
H   76.732376   66.012924   93.344818
H   89.328308   25.432236   83.138367
H   92.546608   88.741249   15.035098
H   61.580917   43.263214   19.809744
H   43.039024   39.279728   20.705420
H   84.758919   28.850636   62.150372
H   65.906029   57.695332   80.097641
H   61.715034   32.979355   79.110161
H   70.360374   30.385841   43.299068
H   35.856117   61.725388    1.162996
H   13.458586   77.033653   58.909184
H   51.703739   42.564796   76.390388
H   89.386917    4.952427   54.826298
H   24.248047   32.293255   87.161705
H   75.188644   29.027876   21.865871
H   32.041378   24.876654   77.761490
H   91.469116    3.142330   95.810486
H   44.665421   33.065838   29.351093
H   74.495415   52.710384   20.699051
H   86.284164   94.249306   97.660522
H   16.165478   32.074932   96.126251
H   61.582401   45.990860   64.203552
H   34.879787   11.763968   55.615997
H   68.744354   35.265842   38.768654
H   39.183334   31.995239   21.578869
H   45.079685   18.970942   60.533016
H   85.187401   83.721718   36.417812
H   60.301636   83.677254   92.932167
H   61.286324   79.139183   25.991821
H   42.464027   98.177444   33.863934
H   35.072086   88.010742   39.163647
H   98.263893   15.812796   38.668861
H    2.608144   35.721298   39.802971
H   73.324867   29.609709   45.023014
H   51.923832   25.544521   22.291096
H   16.222519   85.069450   53.503120
H   41.170738   83.175224   21.661049
H    7.856546   18.536560   51.715378
H   95.850029   38.014156   22.435429
H   56.009411   71.768578   71.681137
