200
TIME:    0.228, STEP:   228
H    9.102414   62.514820   15.134384
H   27.857328   32.702980   89.410027
H   18.389210   68.612915   44.757133
H   17.438004   76.833504   44.813492
H   15.337550   83.425110   53.831032
H   90.008972   53.140694   65.904655
H    3.185376   55.312645   49.419094
H    2.619714   88.368195   25.498280
H   86.941139   87.686127   48.012157
H   11.283627   75.066978   96.545784
H   11.775406   94.337837   92.582458
H   30.728180   41.702545   12.170495
H   10.879649   86.609627   61.783501
H    4.970898   53.156307   41.687557
H   20.201239   71.852211   43.008118
H   29.650166   26.460796   54.581871
H   83.642899    7.156487   16.014668
H   36.847137   82.590164   43.734005
H   64.626160   30.136356   42.307182
H   90.018074   79.869469   37.935902
H   57.941063   76.159225   26.390247
H   90.296181   48.355690   71.037125
H   95.364555   62.628708   49.424141
H    8.354063   87.949776   91.623711
H    2.724880   12.221336   45.838543
H   18.671026   61.803761    7.352880
H   98.663399   58.555973   48.599380
H   94.234894   69.634407    0.699697
H   10.563176   56.894478   38.408630
H   93.591690   20.442881   99.041000
H   13.377159   50.947910   16.180141
H   32.144268   63.225082   93.307686
H   27.413246    8.727325   73.032578
H   96.823708   63.564827   38.080551
H   48.564304   90.296860   34.310368
H   33.453239   50.195557   79.338875
H   85.920044   74.688004   85.864845
H   33.508488   44.444904   15.706985
H   53.514374   46.830318   44.164894
H   90.197830   39.737835   64.165131
H   80.500740    5.784363    1.125975
H   12.742022   43.358521   40.186958
H   76.917923   88.057594   49.882694
H   37.307999   62.651176   18.319159
H   28.367010   75.929031   43.930870
H   41.228661   14.150795   42.557369
H   79.748016   26.800087   95.915886
H   90.407967   65.550789   48.079056
H   86.616287   29.207546   61.157681
H   62.546825   17.747351    6.220115
H   78.493698   70.648003   28.344303
H   21.596842   35.491436   63.283600
H   51.853172   94.765648    7.771229
H   22.585190   81.930466   81.525459
H   77.706833   76.651810   91.161446
H    5.459486   72.645683   78.255280
H    5.464730   16.700050   49.783314
H   67.277573   58.300434    5.520025
H   28.434374   74.245651    6.836252
H   43.380833   96.056557   67.216064
H   50.458382   15.610529   42.587105
H   89.721085   16.396456   48.974216
H   71.116714   24.957880   85.289764
H   23.835289   65.135216    3.399581
H   71.155472   75.900177   17.438902
H   39.210419   16.094915   32.647598
H   86.623390   23.415108   85.587196
H   97.408623   91.422646   87.033974
H   16.095644    5.691085   62.131691
H   45.306042   41.420834   50.983234
H   58.470428   76.384583   72.960358
H   32.477726   24.137255   44.848827
H   77.112930   25.455639   99.897583
H    7.474422    9.228456   60.223309
H   78.998917    0.677328   68.176956
H   53.010445   19.500263   62.955887
H   95.478302   29.503466   72.315315
H   26.999706    5.751425   48.377876
H   11.439327   29.158781   35.204235
H   68.456909   90.733871   94.830719
H   42.858791   30.304861    1.311744
H   26.108818   68.806038   88.228203
H   11.046531   13.534671   90.630821
H   25.065386   61.467201   93.460419
H   39.335541   99.196960   58.122269
H   24.329132   86.194183   28.032623
H   35.317390    2.759104    1.743814
H   75.431282   18.990961   10.989575
H   65.320892   72.020821   77.122658
H   23.504234   85.509285   54.997524
H   41.745857   34.789204   80.807861
H   84.139015   88.430176   98.106003
H   46.689640   16.997437   96.071594
H   60.565968   94.864769   68.775169
H   24.820831   57.088524   67.439995
H   69.769020   27.441002   29.625898
H   79.142815   14.694227   97.812408
H    7.224581   28.252239   48.479954
H   37.289818   69.898239   52.838722
H   66.995781   97.732376   27.247477
H    9.330859   80.094604   68.374733
H   90.126076   76.475021   65.930794
H   22.930647   37.608490   30.335140
H   21.299280   67.917328   89.685837
H   25.354647   27.630432   24.698483
H   86.948036   27.360399   44.452583
H   65.089851   29.947779   56.315079
H   64.821877   33.813637   19.205618
H   72.491600   40.241127   98.552330
H    3.981250   28.227701    5.478533
H   47.036659   96.171059    0.787408
H   85.512115   63.043495   90.374474
H   57.302460   80.135406   94.196388
H   63.264824   19.656052   75.263428
H   64.250710   81.468872   27.193413
H   14.528220    6.148371   78.393036
H   33.068317    8.273738   84.040207
H   40.831997   26.405827   34.218376
H   18.406614   57.263081   84.132736
H   70.465950   46.435360   48.895111
H   40.429329   21.679691   87.913048
H   18.806873   27.764301   47.835182
H   31.947088   22.328671   23.673170
H    4.254111   67.750679   18.390694
H   77.275444    9.249207   93.210014
H   47.282711   62.024075   25.763083
H   95.684914   49.133896   71.518204
H   75.691154   87.475853   34.901226
H   92.320045   52.918041   85.163734
H   67.163559   24.206223   66.297173
H   48.124550   85.614166    2.952762
H   82.160606   85.932358    9.043996
H   92.476936   82.010902   97.285889
H    1.509002   12.695282   49.559372
H    3.833274    1.587096   56.968307
H   62.677689    1.642251   83.858391
H   68.872849   86.533943   54.741280
H   91.115990   64.595558   83.387978
H   45.999573   44.165817   71.552925
H   43.441444    9.665465   95.790924
H   50.023571   63.421555   14.522321
H   57.790726   40.646217   45.967152
H   55.391258   56.540119   99.789001
H   58.262947   26.962090   77.925575
H   39.737881   70.165054   48.676151
H   45.500450   61.768959   30.420891
H   44.447441   96.830345   47.367817
H   42.980110   73.865379   68.893822
H   64.864471   65.293259   98.063751
H    9.079451   88.543785   90.445999
H   76.643196   61.106152   51.434788
H   33.282227    7.441735   48.528381
H   75.618286   32.287289    3.885874
H    9.592672    0.867297   76.249062
H   13.136692   53.562130   60.536095
H   63.145866   43.499149   53.691772
H   59.185650   60.523739   80.613693
H   45.875458   36.852432    9.442997
H   12.931017    1.779547    3.049931
H   63.814213   57.433441   77.780563
H   53.838074   84.896904   83.734947
H   44.167522   23.118488   35.647934
H   64.702812   35.093124   37.237041
H   10.834208   19.827137   71.712219
H   59.069084   21.681181    9.706636
H   11.706946   64.821022   62.367420
H   75.106468   97.761055   52.094486
H   23.621731   30.386589   47.516499
H   93.909904   28.209234   36.885269
H   25.925331   10.550271   90.538483
H   79.594238    5.491111   35.977081
H   46.577492   65.892792   57.421265
H   37.441086   77.969864   90.761673
H   71.371910   74.831940   73.966019
H   71.995605   95.126816   99.795662
H    0.536882   47.596031   23.275232
H   35.541019   52.546288   86.405983
H    1.623649    9.189415   64.726761
H   75.908455   21.658525   69.275192
H   86.871361   54.326378   86.215721
H   81.636902   84.759392   41.998306
H   18.985624   30.091396   69.178085
H   66.187576   90.178207    5.832525
H   51.219627   25.198114   76.748817
H   85.367783   88.854858   78.446274
H   99.009209   36.122513   83.894142
H   30.934202    4.730120   98.999283
H   90.997559   66.716255   25.106663
H    6.965889   61.119892   66.406265
H   49.395355   58.338589   65.551407
H   47.247013   31.421364   79.387154
H   47.751289   84.603088   24.777235
H    3.833923   17.238541   57.531326
H   35.313221   63.052124   33.071445
H   85.306412   54.791332   21.855537
H   75.298843   10.354000   29.730778
H    9.381515   85.232201    3.061743
H   29.258238   97.644676   47.305138
H   12.073333   11.578318   78.553749
H    8.132900   35.399281   97.915512
