100
TIME:    0.605, STEP:   605
H   76.408852   66.539742   98.592117
H   84.441032   37.547222   16.163359
H   90.159180   17.430153   16.236176
H   81.578156    7.723513    7.000515
H   89.752121   21.250938   49.300850
H   18.634754    0.555182   38.660732
H   21.262863    2.189150   37.764561
H   72.334488   40.941807   52.645653
H   38.755943   28.125214   62.005852
H   58.306877   25.072102   31.381273
H   43.979401   90.586151   81.472481
H   32.749378   54.016167   49.864204
H    4.778944   25.104218   64.995934
H   25.125675    3.211913    3.279908
H   87.860710   15.982928   21.690153
H   77.198196   58.820415   82.819809
H   75.425453   22.006607   28.438559
H   14.072766   65.279495   78.572067
H   54.685112    3.732179   95.237381
H   76.272591   92.847321   57.462349
H   28.374985   95.987152   40.822548
H   20.359303   44.898468   67.741890
H   77.666405   89.701790   15.039886
H   62.830475   43.937778   62.143456
H    7.945999   38.193462   41.026260
H   43.884899    9.582915   32.466934
H    9.908552   17.327515   11.971678
H   81.492577   84.678543   86.772079
H   24.326385    3.982588   28.573032
H   24.191507   75.866043   31.483875
H   39.900730   76.296104   61.537193
H    3.957374   35.796158   43.256187
H   12.972792   24.217318   52.300133
H    3.664522   18.277924   46.263130
H   65.733604   13.186925   61.567368
H   25.157719   32.011730   18.562613
H   37.826473   82.379250   56.136913
H   38.984352   47.880985   65.133263
H   23.521301   67.593025   84.140472
H    6.209560   55.545811   85.634453
H   93.897186   76.939201   56.595669
H   77.247215   39.010880   31.223944
H   16.452055   67.127945   45.172592
H   40.725616   22.910486   39.885872
H    4.176586    8.021810    7.878714
H   70.224617   74.577446   85.690804
H   42.468311   58.378567   32.792915
H   56.271725    1.612399    6.011886
H   82.714531   82.343002   20.339899
H   38.578571   39.957882   41.349899
H   43.498463   11.234568   59.795902
H   34.534035    7.599128   34.344986
H   21.429132   25.516724   67.733894
H   62.679173   97.331322   58.513325
H   92.595276   11.541979    5.539898
H   94.323227   11.896118   72.031174
H   34.605911   72.089897   13.528080
H   81.009216   19.752266   97.971146
H   37.991676   64.331314   65.038483
H   19.095436   74.290726   46.401939
H   97.864120   50.434708   67.224060
H   77.438507   22.314102   67.982193
H   15.269369   65.897087   92.052589
H   84.583809   45.085533   10.713484
H   56.337097   12.523411   51.904182
H   64.179237   12.196735   81.958183
H   39.028740   69.277039   96.271042
H   38.574394   52.137985   95.125099
H   87.055168    6.314873   22.287449
H   42.641891   78.573875    0.458540
H    2.820028   54.239513   54.891392
H   24.082331   31.446861    0.916350
H   67.544647   88.381081   46.236095
H   16.874428   11.093615   67.251656
H   91.341599   29.504541   47.261280
H   39.961948   46.347900   55.219913
H   21.884697   74.107780    1.739466
H   60.404327   11.160889   47.852871
H   90.551247   51.730320   24.434422
H   69.855179   76.005669   68.799896
H   22.721226   35.540661   16.148209
H   86.716850   48.178665   36.188927
H   56.075428   17.355368   87.523193
H   91.787872   63.932224    8.170052
H   22.871202   11.040000   89.104576
H   37.368259   31.276508   83.796211
H    7.561316   59.364494   52.391857
H   65.694473   56.856194   89.451103
H   68.238228   60.486610   23.250675
H   12.846043   84.391205   45.840633
H   48.781651    6.100503   46.238232
H   23.050829   41.007515   45.050812
H   24.101551   45.758110   65.719261
H    5.702713   49.931099   67.609444
H   46.132282   95.536774   29.988029
H   43.892120   71.840385   36.200035
H   14.580507    2.400246    2.394701
H    9.086511   21.388885   46.355766
H   79.891319   39.458210   94.374184
H   76.814011   63.165348   39.416122
