100
TIME:    4.864, STEP:  4864
H   88.390297   75.967781   94.692886
H   66.143440   68.438202   84.796753
H   63.362404   23.839359   66.251350
H   82.293015   32.254448   73.551643
H   51.604645   62.628555   33.820694
H   52.597179   95.938560   60.445217
H   98.048744   89.777878   70.824142
H   37.585487    9.400348   61.598560
H   34.061531   18.639755   93.915062
H   41.919304   86.223198   98.157043
H   47.817596   61.956135   71.223679
H   70.197166   67.497856   46.703896
H   33.685135   67.454536   41.710449
H   14.244794   90.083656   27.392565
H   39.665047   35.554993   16.963799
H    5.952502   86.305740   29.286922
H   32.973274    3.687456   16.177458
H    5.081370   58.150723   30.914133
H   21.026848   82.404266   19.617083
H   61.469826    2.523493   47.496346
H   75.640068   71.991364   25.227295
H   28.696762   50.541016    5.063738
H   20.802620   55.063622   93.184708
H   67.123184   95.015839   45.830421
H   55.619293    0.419098   72.461586
H   24.373465   82.864990   33.029865
H   42.650841   40.286495   96.475014
H   22.131912   83.474792   27.549799
H   16.934441   90.392357   27.247738
H   87.501083   70.455620   70.062691
H    7.483325   58.219044   24.554741
H   72.873177   18.126099   48.979195
H   12.970510   12.609098   35.984489
H   83.616760   27.966064   66.838585
H   59.865555   91.238876   20.912292
H   95.457199   66.398003    4.135123
H   46.319641   26.406139   91.729599
H   62.951832   69.941780   65.679207
H   39.762096   75.439323   72.954620
H    5.059370   56.832596   20.723360
H    2.832260   23.079542   56.939434
H   94.471855   30.156301   31.314226
H   53.137318   92.667908   52.804993
H   68.759659   94.284912   56.311684
H   34.739933   39.982368   72.336082
H   15.335346   55.690174    2.920532
H   79.734665   89.358238   72.156456
H   56.499180   45.467590   69.534691
H    7.211827   29.613247   50.448242
H   27.890347    4.764540   43.469139
H   43.173527    0.055252    4.701195
H   41.513191   12.396158   54.750450
H    9.765332   50.211853   20.375044
H   64.049278   27.843117   46.450768
H   53.516235   84.860115   41.718266
H   99.652176    7.417267   27.044769
H    4.609247   49.198143   18.594460
H   63.871964   17.542803   88.269150
H   73.889397   44.285370   38.071068
H   38.044689    1.650354   25.266853
H   66.525513   52.372417   35.160027
H   26.282377   82.668655   75.274658
H    4.276853   75.372360   99.931366
H   77.042397   68.259430   95.080292
H   25.382219   72.365265   48.532429
H    2.542820    0.469333   33.780968
H   97.320221   16.524242    1.895439
H   44.376091   95.714005   98.729927
H   99.321915    0.290318   55.172142
H   28.931292   92.787109   91.490936
H   67.578545   64.453461    3.799604
H   72.907379   90.098114   12.740672
H   89.849060   77.712379   37.035912
H   23.133236   41.576115   14.151276
H   96.684944   35.574154   70.122162
H   40.646919   19.309092   68.642868
H    8.574263    4.966740   77.070900
H   60.499889   32.675030   83.060493
H   94.760292   39.231625   71.953209
H   60.985443   44.050114    1.883367
H    6.052931   79.601974   70.698860
H    6.276446   75.993179   80.052635
H   25.533319   88.462585   93.166229
H   84.785065   28.382330   19.166115
H   15.492545   44.639427   76.242195
H   39.347355   87.717384   79.554062
H   92.010277   49.700500   55.477844
H   34.248367   15.871134   45.159828
H   56.625595   23.352331   88.409554
H   36.295567    9.156166   98.094666
H   23.077629   36.073925   36.180584
H   38.185642   61.298508   26.207418
H   97.245461   73.465645   95.145126
H   17.351440    8.269795   54.772228
H   72.495155   14.041634   27.855091
H   95.668015    3.658134   16.217278
H   76.521019   46.815563   57.455917
H   24.719519   57.651733   78.200569
H   77.003418   57.817089   37.626282
H   41.332249   53.813709   29.175623
