100
TIME:    7.042, STEP:  7042
H   41.100174   76.235756   92.698868
H    5.994071   86.459450   22.125488
H    0.816118   80.533882   40.679523
H   82.658585   42.520660   54.167820
H   32.096497   37.204693   74.767944
H   18.815182   93.578972   76.139542
H   83.898605   36.847454   41.146725
H   66.398979   97.825073   61.621758
H   80.522072    9.233829   56.819111
H   82.417519   17.497683   83.440529
H   45.225342   49.592640   61.427536
H   87.067062   76.669769   91.672218
H   94.704659   35.741367   25.292202
H    6.403801   83.370461   93.138802
H   66.138130   41.006676   12.253613
H   18.380085   95.809814   48.493652
H   57.831367   47.743633   14.449395
H   51.657475   52.175262   55.412575
H   54.944469   73.775009   34.361561
H    2.795830   56.265514   95.784752
H   46.394455   55.164696   66.108208
H   37.503738   53.432343   19.586899
H   91.721352   37.350090   30.871477
H   64.755608   21.071016   84.073654
H   77.722237   27.694153   88.546669
H   14.403652   18.502884   28.199030
H   54.840076   49.750389   39.692852
H   38.358261   85.136467   99.542282
H   64.292381   87.997536   24.292585
H   71.014786   16.550652   43.207054
H   93.201881   53.524788   52.238380
H   10.393415   57.945827   47.350838
H   66.387215   53.255913   32.195930
H   75.642891   28.365341   75.083252
H    5.699769   26.491798   53.493538
H   84.786888   36.988800   97.286690
H   55.217819   46.642700   63.347385
H   72.932289   30.080502   19.376228
H   47.828312   27.982386   61.890152
H   99.916145   52.935406   92.084335
H   53.980576   97.812904    8.251572
H    6.752537   69.218353   39.466579
H   71.890717    5.730793   10.125687
H   29.688229   30.842306   69.264275
H   45.814156   54.049091   58.713203
H   87.225548   97.232224   11.770140
H   96.750290    7.805505   93.060417
H   56.617428   67.900299    4.296911
H   70.872688   49.230892   63.568108
H   73.587646   37.917179   91.155281
H   43.018055   89.783585   27.659378
H   47.369411   10.293205   11.773171
H   54.945896   62.840637   93.880104
H   13.617210   92.305191   42.559708
H   80.100204   75.732658   60.246021
H    2.366562    5.126223   52.900497
H   42.683567   86.352333   25.740364
H    1.694212   11.857286   32.170761
H   45.664055   36.315334   70.870216
H   94.320061   69.060608   63.319359
H    3.914968   51.085022   65.345047
H   48.983589   62.396133   76.726654
H   52.142628   26.749866   50.579376
H   26.600815   80.123840   35.949757
H   11.831038   98.411011   51.359974
H   68.746277   92.194756   62.561844
H   22.575830   91.822906    7.049422
H   93.926506   20.276983    2.850921
H    7.873310   43.793121   18.570095
H   73.052940    2.333166   86.904694
H   98.416252   16.264206   77.676949
H   93.364540   17.791721   72.224251
H   47.839920   69.983582   81.192444
H   75.185020    3.731784   84.742188
H    1.692431   38.684147   35.230778
H   92.133369   58.900173   22.092508
H    6.346480   16.297207   15.632273
H   62.826290   90.261147    3.341810
H   99.203972   32.834148   96.247002
H   54.178513   25.408756   14.246491
H   48.674202    2.134876    0.873444
H   69.721840   90.139145   97.871010
H   63.298920   24.885168    0.587057
H   34.628170   14.758169   20.239613
H    9.442549    8.402722   65.109459
H   89.218307   67.720734   30.801193
H   37.474049   91.341698   59.333107
H   69.283745   41.566097   22.563293
H    1.823599    2.085445   70.596321
H   43.731541   19.548321   75.950195
H   12.210407   53.678406   82.175949
H   99.335587   25.104858   67.701103
H   36.859165   38.814693   63.573250
H   27.848949   40.402794    1.630286
H   34.841438   18.949821   77.904266
H   75.561905   17.651075    3.720356
H    3.641836   71.805695   32.197784
H   24.684633   34.897732   37.513634
H   73.248466   67.211266   55.196789
H   76.616234   97.926254   19.361813
