200
TIME:    0.115, STEP:   115
H    5.630149   62.889843   13.202154
H   26.850155   31.053186   84.822678
H   20.757673   63.666924   39.191277
H   13.629002   75.512733   47.768414
H   16.537348   80.561142   55.455700
H   93.685059   56.207691   69.249687
H    1.548234   55.392822   47.231892
H    0.087439   83.488586   29.509300
H   82.352066   89.380196   50.768791
H   15.261456   76.649834    1.002887
H    7.836696   91.923897   89.011551
H   30.260910   38.686413    6.786235
H    8.106204   82.859398   66.414818
H   10.312172   52.679554   36.242397
H   25.656960   70.982330   43.286152
H   32.943901   31.116684   57.019520
H   78.327057    1.864182   21.500994
H   39.530491   77.157936   45.745766
H   60.866451   34.227222   40.643719
H   89.658569   81.421288   42.316341
H   56.584946   70.518364   31.567287
H   92.811852   44.036461   75.391701
H   98.748383   63.450310   52.135513
H    5.977541   86.946693   91.981812
H   97.813339    7.676555   49.870686
H   18.764566   56.789230   11.085005
H   96.475334   56.288593   44.056000
H   91.641632   64.972916    0.402366
H    5.803859   60.329170   39.070309
H   98.698036   17.415756    2.949743
H   13.524690   46.226933   16.041986
H   34.199135   60.576645   90.525620
H   30.143585    6.295819   71.652321
H    0.563661   63.441544   36.105431
H   53.987049   94.966110   35.169903
H   37.144413   52.772007   78.043106
H   82.676743   77.126945   85.016518
H   39.098053   41.521881   20.787683
H   57.696526   50.876686   41.653103
H   91.281517   40.202518   68.579193
H   80.467117   11.062959   97.374992
H    7.117548   45.728062   43.537594
H   78.952530   90.653442   45.686749
H   37.559738   57.163342   14.277749
H   24.506214   72.481407   39.853035
H   42.818844   17.091639   41.328415
H   77.618576   32.336201   93.438148
H   93.158997   65.552513   52.141373
H   82.246193   33.495739   61.076210
H   66.590332   17.237406   11.000882
H   81.181793   72.078262   32.822594
H   25.916502   33.546490   60.853710
H   48.806004   97.999466    6.292852
H   24.266973   79.545837   79.852081
H   82.489883   79.164894   94.815979
H    6.908066   75.429474   74.555054
H    5.787218   16.272438   50.995457
H   66.043015   55.673550    7.559536
H   30.818787   72.062759    4.103219
H   45.994354   96.691078   69.304985
H   50.824352   17.815189   45.888599
H   87.690788   16.128767   48.108215
H   68.003593   22.617004   89.102066
H   21.097406   64.973999    0.876635
H   69.338982   74.215591   12.818072
H   43.643017   11.704883   30.616440
H   90.844337   25.798658   83.252571
H   98.041420   91.165733   84.796768
H   12.076324    4.164052   63.561951
H   45.956512   39.451317   50.989269
H   58.520000   74.430153   69.937759
H   35.653351   27.107479   45.639824
H   73.526505   23.502071    3.681225
H    3.793053   11.712228   56.933884
H   77.622971   98.847984   73.490211
H   50.154236   23.489731   63.694294
H   95.955917   25.296743   73.913689
H   31.185091    3.693752   52.241905
H   10.580223   24.124207   37.706974
H   70.159599   91.364082    0.189670
H   38.062809   32.214653    2.989055
H   21.140196   70.838058   91.721519
H   11.487398   12.295156   93.937057
H   28.750309   57.772148   89.777435
H   43.359493   98.002060   61.324619
H   21.145533   90.147873   30.384922
H   30.252859    2.523637    1.484759
H   76.370995   23.196606    6.727478
H   61.864384   71.739769   76.711426
H   24.070217   80.444321   56.240704
H   46.482635   33.813713   81.310478
H   84.926132   87.438736   95.640335
H   41.321640   18.271868   99.289894
H   65.633224   98.924500   65.672394
H   21.957510   58.617065   62.733673
H   74.448616   24.914555   34.938820
H   77.609962   18.602655   92.945732
H   10.331020   26.496313   47.410061
H   39.850319   71.030205   52.438267
H   65.031006   95.896057   27.219889
H    4.289240   76.970276   63.053638
H   85.924095   74.765434   66.554108
H   20.588263   41.738052   28.755949
H   15.869423   67.708694   85.198494
H   25.504440   29.115437   21.034897
H   82.474487   32.892883   49.742992
H   59.736942   28.544676   56.840973
H   65.487434   29.475010   23.575066
H   69.619873   41.667507   93.088203
H    0.351309   29.803228    4.925482
H   45.549931   97.153015    0.707904
H   80.974770   60.201511   89.087326
H   59.265079   78.824120   96.654297
H   63.647606   22.092192   78.177399
H   68.021629   76.763412   31.155508
H   19.139744    9.454176   73.295311
H   37.714291    6.682540   82.722885
H   41.405308   20.843849   36.477135
H   14.115190   53.020580   89.717560
H   67.483871   44.180050   44.679768
H   39.249947   20.928783   91.615860
H   23.682602   30.441189   44.511272
H   29.222784   27.094479   20.321026
H    5.918976   71.817307   23.339056
H   80.656685   12.046993   96.947327
H   43.142803   58.932076   27.944897
H   98.493706   48.606277   75.882263
H   78.162857   86.589592   33.946857
H   90.929443   57.008377   87.738892
H   61.686501   24.741816   64.372055
H   43.563065   89.648895   98.634407
H   86.497940   84.811600    6.379211
H   92.845924   76.513153   96.445320
H    7.049967    9.798015   48.168339
H   98.250999    3.630295   62.160866
H   65.687355    1.787276   85.523148
H   68.685768   86.245995   49.115936
H   90.152138   68.123360   85.173431
H   43.045944   42.585548   71.579651
H   43.380234   15.085085   98.930771
H   44.429264   66.744957   10.872206
H   62.992767   37.212818   43.332939
H   59.023808   54.460251    3.600357
H   63.440849   31.052641   76.053047
H   34.426350   73.912697   44.981098
H   41.360111   59.821857   35.832859
H   41.774864   97.325203   48.176918
H   46.065643   78.071671   69.542137
H   61.843601   70.010788   99.187096
H    5.460431   87.283699   94.670975
H   80.626198   59.187069   52.287857
H   28.525627   10.568424   52.069546
H   70.368828   36.512547    7.852873
H    6.605529   98.273293   79.041473
H    8.655815   50.577896   58.491573
H   59.791351   43.218960   50.215267
H   58.002819   57.135170   79.275681
H   44.268894   38.665474    6.795613
H   18.102819    2.205328    7.240428
H   65.080734   62.044067   73.444092
H   52.728092   89.487701   86.739441
H   49.473019   23.704084   36.626873
H   59.838726   40.019718   37.284027
H    6.686433   16.507538   76.546997
H   60.151047   17.846895    8.596332
H    9.760060   68.416069   62.985130
H   77.052277   99.588753   50.896568
H   23.523018   25.245327   42.843800
H   92.374466   28.576714   37.152096
H   20.768551   11.403017   91.810974
H   81.752991    4.147279   35.986565
H   50.481178   70.089600   57.074261
H   35.257763   82.825333   93.941177
H   72.761650   77.540726   71.348618
H   77.247650   95.976868    5.108547
H   97.047905   46.985649   23.166821
H   36.701866   49.016331   81.678970
H    0.622158    9.081650   63.281841
H   78.798286   24.285410   70.596825
H   92.246689   53.114235   84.621658
H   83.699959   80.710007   44.625622
H   16.706390   29.953457   65.052834
H   71.389618   90.295456    3.596025
H   48.759132   24.988834   72.591667
H   83.906487   93.756020   78.911819
H   96.643547   35.169006   83.328590
H   26.999695    6.665745   96.495682
H   96.426338   61.929939   21.152758
H   10.238287   60.615982   65.114807
H   47.340488   58.953281   64.123734
H   41.848839   35.159954   80.194099
H   48.677639   81.532211   26.216547
H    1.323933   14.550229   54.942806
H   37.287479   58.541935   30.794037
H   89.184235   59.838623   22.225172
H   75.022964   10.076720   31.278933
H    8.630391   82.150978   99.247696
H   32.542309   99.890503   50.491970
H   13.580214   11.262135   83.607506
H    9.311528   39.227531   99.485435
