100
TIME:    0.882, STEP:   882
H   57.676186   41.137367   98.338516
H   76.735786   52.566746   33.636471
H   94.918427   37.358196   12.983742
H   81.624649   96.310753   91.817619
H   87.271057   43.453712   41.790031
H   14.339386    0.253714   66.093864
H    6.745573   20.894033   59.426319
H   50.562836   64.905075   27.211578
H   31.946754    1.492597   44.568665
H   50.736885   29.048355   42.229057
H   18.213531    1.731864   54.790154
H   22.176327   67.900826   30.146822
H   87.158264    8.345171   37.465347
H   11.410261    2.357859   24.360493
H   91.229378   91.240875    8.374737
H   66.060883   34.590946   59.826645
H   53.155052   40.325058   53.659035
H   19.992065   51.809052   68.969040
H   58.998444   15.353351    9.830812
H   68.774452   87.039856   76.359856
H   11.937408   68.412262   33.305389
H   46.919788   45.264076   44.155209
H   73.968056   87.448967    7.114325
H   37.094193   47.259953   41.570068
H   98.039299   16.225269   43.070160
H   42.614780    1.329615    6.503663
H   86.023102    5.812551   17.468481
H   58.119545   97.607971   95.927078
H   30.349411   29.113649   15.479820
H   34.812389   69.010361   53.504879
H   50.797123    1.136364   39.617607
H   21.447027   28.143745   17.612892
H   32.484333    3.951369   77.254478
H   15.368739   92.892769   34.593254
H   58.848335   92.247597   78.435760
H   49.241669   53.770702   17.609495
H   64.393333   72.235207   77.963509
H   27.536377   42.811077   84.681679
H   11.068222   61.679893   57.592155
H   80.118507   29.613085    7.427603
H   74.965866   86.445015   63.123783
H   52.352043   51.443672   44.237904
H   18.838018   68.789032   65.179726
H   23.037477   27.552443   66.970467
H   80.148094   97.092728   31.583017
H   66.686882   79.784721   86.777061
H   45.393177   73.320694   35.159859
H   56.286518    4.464456   23.151060
H   90.812859   59.400986    9.289968
H   44.388149   44.174000   21.976891
H   43.477329   84.491905   62.716541
H   47.996025   81.896271   16.159676
H   27.175310   27.122864   51.645508
H   56.265179   92.812996   70.736893
H   70.544662   35.825504    7.890463
H   94.669815   11.605005   62.601440
H   52.165672   64.097237   39.873055
H   60.382996   93.593376   90.836502
H   59.837296   76.035004   43.772022
H    0.816784   95.580536   38.523399
H   15.337706   37.553886   45.627502
H   67.607239   19.735825   55.448631
H   34.058174   47.008034   73.049416
H    3.604119   46.592346    3.192099
H   67.332176   90.400139   77.700630
H   47.162605   98.426338   98.336586
H   16.804110   78.854706    9.644913
H   19.440193   67.979599    8.367301
H    0.859629   86.411438    4.914000
H   48.252815   92.505028   99.875885
H   94.024025   35.390614   51.569218
H    1.242723   22.253822   21.197111
H   49.484024   74.678169   39.133152
H   10.777888   93.564667   50.788719
H    4.697449   29.898680   68.259453
H   46.511196   64.102074   36.582348
H   47.035160   50.100212    6.640778
H   73.418289   93.048805   63.151356
H    3.827798   50.918797   27.523071
H   56.270615   60.920197   44.936035
H   28.141949   38.406353   32.703121
H    7.499855   49.987686   13.025379
H   73.602531   21.978304   13.905899
H   10.842770   87.635475   82.869118
H    9.383055   93.713776   62.252449
H   30.992306   41.452175    3.031915
H   26.061514   39.224342   65.600250
H   70.153625   34.678780   86.572731
H   73.986519   45.063438   20.984116
H   88.356094   72.991837   55.743755
H   60.117619   21.057650   52.087963
H   43.546024   61.840843   50.327827
H   41.874290   54.057205   87.148552
H   32.476463   66.733940   86.287163
H   41.343449   70.726135   36.353081
H   66.771164   60.901726   21.892708
H   92.593643   18.296370   86.464264
H   10.103557   23.747375   41.924088
H   66.695610   40.652248   71.169685
H   94.016617   56.049725   12.736589
