100
TIME:    2.443, STEP:  2443
H   52.111969   97.985863   96.909378
H   33.313805   37.200272   32.103626
H   21.747770   49.662964   94.659386
H   81.886658   31.999533    6.253326
H   73.289322   68.574738   99.465790
H   90.135384   98.561409   20.684072
H   24.933205   26.300468   81.498634
H   27.871315   99.953278   83.885918
H   93.574333   51.408936   46.309322
H    8.080450   51.461220    3.353372
H   73.013123   64.541931    4.427713
H   62.600410   46.145538   19.033556
H   87.863106   13.902651   82.314415
H   34.118141   97.545845   43.153973
H   10.215816   51.808472   33.339142
H    3.296116   98.055267   30.251642
H   27.653885   43.556496   95.782761
H   53.350533   75.897484   14.850452
H   83.315163   80.840546   92.069870
H   26.700279   53.932926   82.663460
H   19.305542   13.008541   90.936325
H   96.593140   47.327103   11.234222
H   53.126457   74.753456   62.453278
H   92.060318   65.981659   25.635262
H   42.207634   92.421967   54.586632
H   35.457180   54.813755   60.188568
H   51.416725   40.924732   48.445049
H   26.408957   70.470695   47.525211
H   64.291443   70.740089   41.689751
H   94.669456   30.375992   77.600243
H   12.203797   41.123028   16.097755
H   20.009529   85.014534   73.103325
H   42.439404   89.741142   17.881689
H   81.323494   49.836349   68.831390
H   20.045399   74.248016   73.489265
H   84.963547   76.395500   12.241841
H   14.114839   15.067915    0.964275
H   63.015327   14.240223   94.837822
H   41.953743   28.186888    7.567632
H   33.090420   83.477928   30.243979
H   68.287849   40.008327   99.900558
H   12.058289   21.500542   17.575605
H   32.283825   78.149887   77.933342
H   23.356863   53.716568   19.597914
H   44.743191   35.502384   65.165138
H   46.569508    9.513264   93.089546
H   60.817501   57.696503   48.908249
H   56.369884   20.536306   19.736885
H   36.440712   30.120152   47.022644
H   77.122551   67.931450   12.798641
H   43.358234   33.788033   79.175446
H   23.857576   37.046871   13.682827
H   59.557198   36.174072   60.985405
H   20.119892   67.350517   39.618622
H   46.273613   72.672195   21.135633
H   96.622971    9.964474    9.461319
H   51.126392   19.055565   88.336998
H   44.145844   46.176605   50.630081
H   82.950981   41.991940   23.932440
H   97.806854   15.564573   94.125862
H   13.806744   64.959175   23.920574
H   12.206444    5.204041   84.816544
H   39.939976   40.559380   65.958908
H   10.795366   55.083809   60.816357
H   29.288273   65.726776   23.072676
H   51.267830   20.824135   90.634575
H   91.561684   32.824108   85.009903
H   11.611153   57.255127   82.992126
H   78.661583   74.247932    7.010894
H   79.878479   71.020088   96.588867
H   44.456749   29.178301   32.844822
H   72.529907   70.446640   35.486534
H   47.703781   97.466942   99.105705
H   76.428062   94.781250   58.013802
H   79.957787   32.120121   86.593613
H   83.412422   64.147575   31.547043
H   88.763550   14.803537   34.255665
H   46.756908   90.978828   49.358692
H   78.662735   46.342869   44.935921
H   79.715981   75.903976   10.454537
H   58.689777   54.555614   26.000843
H   24.624321   60.182205   82.495094
H   72.370712   48.033966   62.583561
H   18.226116   21.212252   40.288757
H   33.376236   96.072464   10.930932
H   95.063354   98.789116   11.432626
H   30.317175   25.726929   40.035049
H   95.282639    9.701948   70.340126
H    6.381201   58.149696    8.213009
H   50.344936    8.762321   11.549912
H   24.000275    5.347250   85.053421
H   59.047832   79.237602   80.072243
H   42.031178    0.834981    7.912107
H   83.353096   61.420155   91.537651
H   14.352661   30.900589   72.224449
H   95.703339   99.260567   41.264938
H   68.688522    7.879279   96.690132
H   15.834996   37.038361   16.946308
H   92.334709   47.381107   40.411438
H   90.959854   15.952869   62.389923
