100
TIME:    6.107, STEP:  6107
H    4.331226   61.979149   93.554886
H   31.813786   35.793476   63.172848
H   84.737564   13.266120   51.657955
H   82.501648   81.041473    5.416673
H   40.471207   62.260406    0.120337
H   33.317554   94.591927   83.543205
H   32.902744   73.712303   68.028435
H   39.888138   16.935520   47.469913
H    3.506208   99.130127   15.672648
H    7.956488    4.071142   46.831486
H   32.196762   11.970839   51.491875
H   22.753265   29.802784   58.225990
H   54.366531   92.287575   18.199394
H   52.698509   86.252388   21.985218
H   54.781487   24.525505   57.215839
H   55.974838   77.588417   26.106876
H   33.018593   85.901390   29.332647
H   31.662321   97.672623   87.825233
H   40.385029   34.549759   85.102585
H   27.984161   76.122353   32.125542
H    1.878686   48.246716   91.489143
H   47.864380   52.191116   99.210846
H    4.205366   44.954384   57.622192
H   51.630123    9.885714   53.515156
H   11.163373    1.843262   81.641457
H   18.707170   46.121925   16.142933
H   35.465263   88.616226   21.138662
H   17.251129   41.493813   68.640030
H   43.961952    3.167098   68.491028
H   35.161900   39.691673   68.877609
H   56.405899   69.681282   26.212532
H   51.356907   83.781631   33.908455
H    0.525300   21.664991   47.963745
H   36.137657   14.052524   14.473185
H   28.968376   97.276741   96.601776
H    3.509000   63.755211    0.225797
H   65.538857   80.883423   89.673134
H   11.579935   47.193729   53.394634
H   87.293671   48.354912   52.498466
H   87.982224   40.466473   18.520090
H   17.881435   65.726494   86.223976
H   85.549210   65.551743   91.732933
H   63.844006    0.121854   42.588921
H   89.391388   15.148642   77.845543
H   26.919075   90.941544   78.702621
H   99.295403   79.398514    7.971560
H   89.445602   56.957596   84.086494
H   56.565563   58.270096   46.444462
H   43.542519   26.668236    0.862164
H   53.960041   23.683798   56.531380
H   43.082256   80.051895   17.804470
H    1.921903   97.055191   73.149544
H   35.549953   57.419189   48.184437
H   35.267334    7.559245    1.302287
H   54.546684   93.792938   52.292187
H    1.202020    6.109752   84.730103
H   83.408974   13.331985   36.814049
H   71.315826    0.156374   56.253403
H   71.922134   96.804268   42.647652
H   56.018684   97.191620   89.912987
H   44.935200   94.568619   38.245892
H   82.168556   71.098984   19.030884
H   88.664742   90.552040   14.695129
H   62.397697   75.030533   61.337826
H   74.721329   73.089005   64.287361
H   26.183491   38.675926    7.277061
H   97.591995   59.494953   61.908279
H   58.513512   66.803139   58.152515
H   61.275959   10.976250   77.212860
H   54.110130   55.307693   88.873535
H   28.108425   79.880615   88.890785
H   70.416214   48.845596    3.747335
H    8.803101   16.229790    5.162415
H   95.772255   62.905674   40.295830
H   56.612736   37.347538   64.350113
H   70.033836   98.973686   85.005646
H   21.430618   97.231544   99.053276
H   18.898296   51.399323   51.707581
H   54.364422   35.580540   85.817848
H    0.032541   76.342293   94.797752
H   30.376818   92.461380   44.989765
H   99.560272   84.075546   76.090355
H    4.155263    9.249341   11.542761
H   70.300484   34.748680    5.637622
H   54.969154   66.890038   55.747208
H   10.736126   33.373779   65.871811
H   75.027443   59.324135   14.748831
H   54.246361   16.384996   32.257698
H   82.420273   54.144020   78.243416
H   26.397570   58.019199   42.527275
H   73.946251    3.192786   62.430462
H   30.155054   54.783936   49.887314
H   76.923996   10.758702   91.268265
H   37.485409   83.677803   38.584579
H   51.005913    2.700973   56.418217
H   98.334717   54.572601   52.014496
H   77.857536   18.148550   85.969986
H   26.489405   88.632996   56.281830
H   17.789459   63.175175   33.512016
H   18.540987   21.919746    9.433339
