100
TIME:    1.852, STEP:  1852
H   92.079498   52.183456   97.450455
H   49.753517    5.156847   94.823906
H   11.589056    7.144671    1.594936
H   81.787460   56.347984   38.648808
H   78.582855   21.203480   15.489584
H   99.297615   99.201683   62.156376
H   55.905849   86.393440   35.281670
H   74.322746   48.822872   38.149727
H    8.102303    8.231153   83.510490
H   24.229334   42.975334   80.212730
H   27.986496   40.761616   61.354580
H   85.154572   16.521593   61.101570
H   25.457020   49.658867   41.055130
H   63.381371   99.367470   98.177177
H    3.026612    4.599371   61.750175
H   27.060181   49.747223   79.309341
H   75.169434    4.472725   41.974533
H   40.720901    4.637804   35.341110
H   74.107841   56.048767   60.931355
H   42.621460   66.482285   42.425392
H   54.376328   71.845520    6.978249
H   39.929752   46.544365   61.561584
H   61.017159   79.560020   79.361923
H   46.970665   58.893559   69.529541
H   63.345695   39.293465   50.226456
H   38.167072   72.423447   15.584598
H    2.378356   65.493851   36.717213
H   76.275040   42.884808   27.989149
H   51.440872   17.120020   69.627342
H   72.007362   45.003098   30.616821
H   88.954170   88.123230   62.861073
H   82.693665    1.345707   27.815132
H    0.809342   32.980614   64.639740
H   56.352806    3.998060   93.729935
H   34.737465   18.923317   37.501968
H   33.579296   29.967913   14.273133
H   57.429207   36.712746   54.395634
H   87.444756   25.057247   53.131008
H   67.463120   40.973259   64.622589
H   88.755684   38.805202   83.745987
H    8.678253   19.730116   85.976852
H   65.173981   94.975624   89.810257
H   27.193197   74.605835   35.245430
H   61.096443   43.810356   61.811863
H   96.008507   58.818279   14.590696
H   54.194180   98.240852   90.690773
H   55.635487   25.645517   43.448433
H   56.338322   14.451448   83.169212
H   19.166838   79.066429   70.598801
H   64.731895   58.938023   54.132389
H   43.403324   90.844566   72.944046
H   95.137291   91.887207   52.482533
H   47.297302   32.747253   95.308098
H   33.804623   76.990700   13.540323
H   93.321930   20.860834   16.121656
H   95.883499   10.585585   29.580353
H   13.661270   36.108498   32.128151
H   88.153412    1.988725   65.852371
H   36.339905   17.019899   69.305298
H   36.805576   70.139648   10.934628
H   76.526138   92.445869   69.998344
H   33.180054   10.706114   11.556378
H   99.852097   80.860573    6.503741
H   70.213928   51.868912   76.860176
H    5.830292   12.927531   68.035217
H   87.574074   50.204597   55.690044
H   38.979538   12.391990   56.477123
H   52.435509   23.455303   54.738911
H   49.206711   16.713409   44.078880
H   67.902649   41.293503   97.833344
H   63.223091   69.390663   39.935612
H   21.261530   90.060669   92.216331
H   86.237457   26.699001   14.260029
H   89.431938   32.180977   93.138695
H   51.463066   31.278875   41.792461
H   69.443626   26.268057   71.312523
H   35.104355   66.029037   23.802099
H   18.990658   29.622538   16.718243
H   50.325134   48.077000   38.341087
H    8.699835    8.089613   61.369728
H   47.124264   48.441448   90.678734
H   80.280991   56.322525   31.914865
H   34.978817   38.168335    6.293746
H   77.571541   70.639626   94.270172
H   62.152496   33.040596   68.221832
H    8.664959   77.082924   70.391731
H   90.845604   68.697433   11.853806
H   85.768707   57.018951   76.490364
H   94.115913   91.056175   13.047754
H    2.596241   33.079208   90.422554
H   99.813972   73.433182   72.572586
H   15.316513   34.793484   68.808830
H    4.112381   83.123886   62.190933
H   26.230457   25.569723   51.688751
H   24.572247   83.838745   58.643425
H   46.889206   22.597582   71.790680
H   15.599488   73.963020   30.679199
H   13.665053   32.006348   26.403877
H   20.487732   44.833538   89.917801
H   54.256821   31.132328   19.311699
