100
TIME:    6.628, STEP:  6628
H   69.097733   14.201380   93.077896
H   17.426582   64.027290   96.021645
H   93.697021   50.748573   45.540562
H   82.589096   59.576935   76.860352
H   35.804657    4.020813   85.993500
H   25.236553   94.027489   35.139088
H    5.597468    8.891157    8.771387
H   98.938560   62.007076   99.632179
H   90.698982   49.038254   82.878181
H   93.725197   11.552664   67.230751
H   83.734619   32.934345    1.307373
H    2.866782   55.917973   21.140621
H   21.120346   60.781994   66.430107
H   26.901707   84.646523   61.634991
H   61.109688   77.987206   32.162075
H   35.027039   32.019997   82.858887
H   91.122688   20.361996   76.761330
H   42.804005   72.320618   69.763222
H   48.497829   56.407814   12.551639
H   13.948738   65.056190   67.597679
H   70.961807   96.378387   77.346397
H   97.813156   52.882751   54.842850
H   97.248848   40.717125   42.716263
H    3.220817   16.118380   14.820215
H   92.529610   60.527481   85.489174
H   16.332159   30.719131   67.148872
H   90.539040   66.960892   31.477415
H   73.289719   65.812340   85.859360
H   55.290459   50.435833   43.862457
H   55.139820   26.797050   10.295803
H   76.909981   16.401459   84.992744
H   84.253296   69.384491   85.676918
H   37.224400   83.546593   94.899536
H   58.150734   66.306076   92.524872
H   16.003723   57.837440   28.303949
H   48.798153    4.561830   98.588020
H   15.510789   61.803833   30.725683
H   90.045418   37.657909   90.161446
H   65.304443   37.002556    2.010233
H   38.909962   91.691956   59.512730
H   82.275040   83.605659   98.498512
H   41.642303   67.594849   18.331570
H   68.327850    3.247308   80.221153
H   56.122295   23.893454   28.786673
H   81.725487   70.383286   23.286299
H   92.569847   89.335800   10.088202
H   93.515915   85.290787   89.086937
H   56.593388   63.636230   78.681015
H   58.770416   83.518959   80.081192
H   64.895264   31.615736   20.101839
H   43.046482   29.753237   23.295815
H   27.245792   48.710884   38.949379
H   46.357746   60.440125   17.924337
H   23.203468   99.058212   24.291210
H   13.063568   39.451195   56.724216
H    1.850925    5.561710   66.994034
H   16.439013   98.298042   86.365334
H   32.520660   50.954872   42.834091
H   13.013852   18.820019    2.651788
H   21.639648   37.238522   75.094505
H   77.799797   70.337540   97.625626
H   63.677254   66.249588   95.456970
H   24.034967   55.000404   78.968597
H   98.172104   77.868622   47.191105
H   95.398834   31.476517   12.805690
H   94.179077   12.775507   38.082932
H   55.791794   77.508270   87.061539
H   22.524635   96.599098   83.059326
H   87.240517   73.540527   44.536694
H   64.663780   81.511650   87.776459
H   11.563110   44.432327   82.642220
H   27.458509   31.554718   41.893120
H   74.833054   90.458954   91.805237
H   84.300652   29.933632    9.340651
H   81.733025   38.090847    3.845012
H   82.348122   32.365032   49.948494
H   68.746674   52.131176    8.290178
H   43.375820   17.331186   80.479713
H   79.349205   34.050198   91.629173
H   74.481796   47.961403   49.913017
H   40.572472   97.851364   76.129242
H   38.656731   87.454361   32.506298
H   37.111221   17.961584   61.161530
H    6.145917   79.331322   58.050846
H   29.601061   34.300064    5.242155
H   98.744553   52.512993    2.051526
H    9.823931   21.443199   39.592049
H   62.625481   74.695312   26.855789
H   93.232040   25.135565   73.982307
H   80.334793   36.582485   61.149750
H   95.267693   31.325165   73.433029
H   68.703781   93.968643   59.812675
H   10.321034   26.392040   31.557993
H   87.837532   15.285874   73.714874
H   41.998756   56.034584   68.390656
H   41.367233   33.998444   25.104324
H   36.502525   48.046936   56.007080
H   25.483751   14.413056   45.823830
H   92.970573   65.423515   89.872368
H   50.900768    8.550121   59.245068
