100
TIME:    1.795, STEP:  1795
H   95.934235   57.410660   97.502640
H   51.339073    2.066350   91.228355
H   10.609282    3.044006    2.264092
H   81.777893   58.696312   41.773388
H   79.093399   16.634678   17.034950
H    0.181337   99.263435   56.511257
H   58.893009   82.544792   30.824196
H   78.802834   43.891819   43.383453
H    9.503471   13.711563   87.098213
H   25.786840   42.156898   77.980949
H   33.288498   38.468082   66.845108
H   87.329819   13.664551   65.158958
H   29.082794   53.107430   46.720253
H   66.203712   99.543159   93.839729
H    2.333230    9.690748   64.490250
H   29.351974   54.733070   84.040787
H   79.752151    0.703205   36.785164
H   39.502815    7.409754   37.317184
H   73.219826   53.657387   57.928539
H   44.157005   67.692978   38.544563
H   57.758789   77.519775    8.525318
H   34.464237   46.469131   66.415016
H   61.778191   80.023598   80.992706
H   52.266579   58.209934   73.762619
H   65.384392   43.813995   49.805931
H   38.428432   74.122070   20.927252
H    7.293545   67.863052   35.586102
H   81.084763   40.224239   26.105051
H   50.201477   11.948613   72.321831
H   69.821678   46.413834   26.085636
H   86.711952   83.011703   67.371490
H   79.094635    2.920445   33.091911
H   96.794510   37.151070   59.504730
H   53.944466    9.221676   96.131317
H   36.154289   23.232063   34.031227
H   28.623306   25.490217   14.469045
H   51.962387   38.800148   49.904240
H   89.800911   26.100513   49.108845
H   70.025406   42.190041   70.085495
H   94.124657   44.141560   79.261551
H   12.573433   17.774263   84.633957
H   70.296814   92.417686   87.132294
H   26.702223   74.264023   31.128418
H   64.736351   42.854935   56.238934
H    0.952997   61.067020    9.712915
H   54.929554   97.153664   90.459419
H   55.033619   22.570513   42.961372
H   56.335278   13.864584   79.642372
H   17.500830   83.787437   72.872330
H   63.536686   58.070446   58.118893
H   43.407673   96.347481   72.343048
H   92.367134   97.176163   56.224636
H   46.114876   32.416748   98.618370
H   35.124470   77.920464   11.025221
H   97.859421   15.863897   15.637993
H   95.812180   10.645489   31.520767
H   10.047781   37.753197   26.706991
H   92.397797    7.371777   67.320511
H   31.844597   14.611403   73.681015
H   40.566814   65.758713   12.555736
H   72.930588   95.096870   74.442772
H   35.203094   11.236771   14.135516
H   95.986053   84.747490   10.414250
H   66.300049   51.558846   78.407463
H    3.567803   17.480099   62.727024
H   91.075691   53.038246   52.319759
H   43.552689   10.421460   53.725231
H   56.372871   20.195259   52.013981
H   46.365669   20.809067   47.653992
H   66.747620   38.426369   97.953369
H   65.033043   73.268883   40.619236
H   25.961447   91.952377   88.043266
H   89.953903   29.518299   15.721645
H   90.686119   35.788269   96.526375
H   48.715088   31.197771   37.471539
H   68.096382   22.614885   75.148125
H   29.928988   70.969223   22.793840
H   16.312695   33.349716   13.570262
H   47.592812   48.243992   37.705299
H   11.495323   11.193972   66.280342
H   46.008808   47.851757   87.271919
H   76.004425   55.950272   36.681107
H   31.372395   37.216827    0.864854
H   73.650703   65.762062   99.476501
H   64.927872   36.606140   73.747360
H    9.976978   74.989433   66.433495
H   87.038704   72.841797    9.135725
H   84.851120   61.582535   77.083534
H   92.933052   94.229897   13.514050
H    7.635897   35.424492   88.384727
H   97.481300   70.355133   71.368851
H   11.098982   30.506556   67.722511
H    0.455275   81.415695   57.781296
H   20.721020   22.112246   47.845757
H   25.557892   88.944183   57.333580
H   42.181244   24.848280   74.734787
H   20.123726   70.691887   33.957291
H   13.455770   31.521027   27.316029
H   23.202877   44.587833   94.692734
H   50.716934   32.596424   24.801785
