100
TIME:    3.829, STEP:  3829
H   58.382477   70.882538   95.640457
H   94.758919   12.346312   19.531813
H   45.571762   49.377327   78.396049
H   82.119293   74.895134   30.282106
H   60.875046   79.668739   61.884583
H   68.648323   97.059853   57.945450
H   52.291447   19.889545   89.885719
H   18.934448   19.859486   56.628696
H   59.503807   18.150787   59.066257
H   70.204292   71.362129   57.631355
H   44.090775   20.310398   70.920097
H    9.696983   15.618372   20.376516
H   99.700378   30.047714   44.557335
H   65.491280   93.273811   48.629383
H   27.076603   28.005375   66.717537
H   47.569077   76.830681   15.200743
H   16.201881   35.229122   21.957327
H   82.962486    8.496341   66.799011
H    4.906489   38.985184   65.087112
H   89.359276   24.503187   77.028770
H   37.058426   75.028748   53.315826
H   29.470306   49.167038   93.203583
H   34.621361   63.481209   22.798271
H   63.285912   82.604523   22.698078
H   92.637726   82.500641   64.817848
H   29.099588   13.518746   30.278761
H   31.899538   83.310562   75.944313
H    9.462365   35.164474   93.337059
H   94.428314   96.489120   76.173592
H   47.813660   96.071617   87.783417
H   66.752525   65.408409    6.440651
H    7.522632   46.719048   44.794334
H   40.067089   88.334785   42.743515
H   39.886368   22.817635   10.441833
H   85.592102   69.477043   57.886414
H    5.478330   85.273651    7.469851
H   47.049644   64.309555   10.175485
H    5.733649   88.877403   92.643883
H   83.449493   97.991508   73.253792
H    2.544807   53.725693   39.292034
H   73.566864   87.566376   32.555279
H   87.492416   83.706039   82.691223
H   44.222256   86.461319   78.045860
H   34.850906   76.942505   55.112793
H   24.518610   80.818024   83.768372
H   28.688297   35.949116   98.715096
H   71.648727   33.072533   62.221344
H   56.443905   34.807419    5.494736
H   76.954391   15.332298   91.733337
H    6.183078   89.016685   15.859653
H   43.252491   99.977837   93.789185
H   91.215485    8.436325   22.694897
H   88.299889   44.210571   80.487587
H   88.022820   44.733566    0.780548
H   35.923019   94.151550   32.913754
H   98.357162    8.506445   62.278610
H   38.993397   79.062416   20.157339
H   40.940666   15.285702   14.928658
H   92.262352    0.552678   17.528336
H    6.345195   22.097479   54.704720
H    1.236468    0.507041   15.857475
H   63.015923   92.302292   22.103638
H   34.010845   45.999321   70.904442
H    5.969559   62.623314   23.182278
H   84.302406   55.028843   52.147373
H   66.123634   51.921852   72.584167
H   80.360458   80.740143   51.926739
H   15.870747   36.522415   49.250942
H   47.739990   74.658813   20.083805
H    7.962339   40.730354   93.670349
H    0.443485   34.875114   16.216404
H   58.247711   24.448257   36.963085
H   57.333679   28.908329   63.575790
H   45.921185    7.072289   75.648064
H   46.782276   34.097523   91.661781
H   16.175905   52.976555   38.286427
H   14.602980   94.674118   58.766987
H   11.873713    0.351063   25.900919
H   45.126381   42.271748   60.406181
H   11.743952    0.417612   91.049522
H   85.804459   68.894424    8.839534
H   28.618919   69.233841   66.598877
H   60.059925   71.170624   94.593323
H   13.579691   39.815132   13.697423
H   65.888794    9.377556   76.573853
H   63.170864   49.701035    7.680589
H   22.884985   24.953438    6.124839
H   17.590330   98.735435   55.922653
H   35.147324   80.979836   96.874519
H   27.803240   51.741577   61.092644
H   80.721039   80.185982   14.323281
H   61.603409   83.464409    6.486054
H   30.899776   42.406609   15.106974
H   17.314747   45.490288   84.988136
H   90.388451    6.750414    4.074021
H   10.181334   44.527779   69.676064
H   58.674255   87.419197   16.979753
H   20.921339   48.839325   94.767265
H   26.308525   53.355610   24.317833
H   77.044273   80.374245   28.879969
