200
TIME:    0.118, STEP:   118
H    5.722332   62.879887   13.253452
H   26.876894   31.096989   84.944466
H   20.694794   63.798233   39.339043
H   13.730124   75.547798   47.689964
H   16.505493   80.637177   55.412567
H   93.587463   56.126266   69.160881
H    1.591698   55.390694   47.289959
H    0.154667   83.618134   29.402813
H   82.473900   89.335220   50.695606
H   15.155849   76.607811    0.884563
H    7.941264   91.987984   89.106354
H   30.273315   38.766487    6.929179
H    8.179835   82.958961   66.291862
H   10.170368   52.692211   36.386959
H   25.512117   71.005424   43.278770
H   32.856457   30.993076   56.954803
H   78.468185    2.004686   21.355339
H   39.459251   77.302155   45.692356
H   60.966267   34.118618   40.687881
H   89.668114   81.380089   42.200047
H   56.620949   70.668121   31.429844
H   92.745064   44.151131   75.276093
H   98.658546   63.428497   52.063530
H    6.040446   86.972969   91.972130
H   97.943733    7.797213   49.763638
H   18.762083   56.922359   10.985922
H   96.533424   56.348789   44.176620
H   91.710480   65.096672    0.410259
H    5.930212   60.237984   39.052742
H   98.562469   17.496122    2.845973
H   13.520773   46.352268   16.045654
H   34.144581   60.646957   90.599480
H   30.071098    6.360373   71.688965
H    0.464361   63.444817   36.157867
H   53.843082   94.842148   35.147083
H   37.046417   52.703606   78.077507
H   82.762848   77.062195   85.039040
H   38.949657   41.599483   20.652798
H   57.585495   50.769260   41.719788
H   91.252747   40.190182   68.462006
H   80.468010   10.922811   97.474579
H    7.266870   45.665154   43.448639
H   78.898514   90.584526   45.798145
H   37.553055   57.309036   14.385043
H   24.608713   72.572937   39.961296
H   42.776627   17.013561   41.361042
H   77.675110   32.189224   93.503929
H   93.085960   65.552467   52.033524
H   82.362213   33.381893   61.078373
H   66.482986   17.250944   10.873959
H   81.110428   72.040291   32.703701
H   25.801821   33.598125   60.918221
H   48.886902   97.913612    6.332101
H   24.222324   79.609146   79.896507
H   82.362900   79.098175   94.718956
H    6.869608   75.355568   74.653290
H    5.778656   16.283791   50.963276
H   66.075790   55.743290    7.505389
H   30.755484   72.120712    4.175777
H   45.924969   96.674232   69.249527
H   50.814636   17.756659   45.800949
H   87.744690   16.135874   48.131207
H   68.086243   22.679152   89.000854
H   21.170094   64.978279    0.943616
H   69.387207   74.260315   12.940750
H   43.525337   11.821432   30.670364
H   90.732277   25.735378   83.314552
H   98.024620   91.172554   84.856163
H   12.183031    4.204593   63.523979
H   45.939243   39.503605   50.989109
H   58.518684   74.482040   70.018005
H   35.569042   27.028624   45.618824
H   73.621719   23.553936    3.580774
H    3.890789   11.646287   57.021214
H   77.659500   98.896553   73.349152
H   50.230064   23.383816   63.674690
H   95.943237   25.408426   73.871254
H   31.073975    3.748381   52.139320
H   10.603031   24.257868   37.640530
H   70.114395   91.347351    0.047394
H   38.190136   32.163956    2.944525
H   21.272106   70.784111   91.628777
H   11.475694   12.328063   93.849281
H   28.652479   57.870247   89.875214
H   43.252663   98.033783   61.239601
H   21.230053   90.042908   30.322472
H   30.387316    2.529888    1.491637
H   76.346046   23.084951    6.840630
H   61.956154   71.747231   76.722343
H   24.055191   80.578789   56.207699
H   46.356888   33.839611   81.297134
H   84.905235   87.465057   95.705795
H   41.464153   18.238033   99.204453
H   65.498688   98.816719   65.754768
H   22.033527   58.576485   62.858620
H   74.324379   24.981628   34.797771
H   77.650658   18.498892   93.074936
H   10.248549   26.542931   47.438465
H   39.782341   71.000153   52.448898
H   65.083168   95.944809   27.220621
H    4.423089   77.053223   63.194916
H   86.035652   74.810822   66.537560
H   20.650450   41.628418   28.797874
H   16.013578   67.714233   85.317627
H   25.500463   29.076012   21.132160
H   82.593254   32.745998   49.602539
H   59.879055   28.581926   56.827011
H   65.469765   29.590195   23.459063
H   69.696114   41.629639   93.233269
H    0.447679   29.761400    4.940165
H   45.589401   97.126945    0.710015
H   81.095230   60.276962   89.121498
H   59.212975   78.858932   96.589043
H   63.637444   22.027515   78.100037
H   67.921516   76.888336   31.050320
H   19.017315    9.366411   73.430649
H   37.590946    6.724785   82.757858
H   41.390087   20.991512   36.417168
H   14.229121   53.133213   89.569290
H   67.563042   44.239925   44.791679
H   39.281258   20.948719   91.517555
H   23.553158   30.370121   44.599518
H   29.295111   26.967953   20.410021
H    5.874776   71.709343   23.207684
H   80.566917   11.972725   96.848091
H   43.252712   59.014164   27.886972
H   98.419136   48.620285   75.766403
H   78.097237   86.613121   33.972195
H   90.966362   56.899784   87.670525
H   61.831909   24.727596   64.423164
H   43.684166   89.541779   98.749054
H   86.382790   84.841354    6.449957
H   92.836128   76.659111   96.467636
H    6.902862    9.874933   48.205269
H   98.399200    3.576050   62.023010
H   65.607452    1.783426   85.478951
H   68.690735   86.253639   49.265282
H   90.177727   68.029701   85.126030
H   43.124359   42.627502   71.578941
H   43.381859   14.941201   98.847412
H   44.577785   66.656723   10.969111
H   62.854660   37.303970   43.402874
H   58.927368   54.515469    3.499171
H   63.303383   30.944042   76.102760
H   34.567364   73.813202   45.079197
H   41.470032   59.873550   35.689178
H   41.845818   97.312065   48.155437
H   45.983727   77.959999   69.524925
H   61.923801   69.885544   99.157272
H    5.556700   87.317505   94.558983
H   80.520454   59.238018   52.265209
H   28.651907   10.485415   51.975533
H   70.508194   36.400372    7.747555
H    6.684834   98.342163   78.967339
H    8.774776   50.657124   58.545853
H   59.880409   43.226398   50.307564
H   58.034222   57.225132   79.311203
H   44.311546   38.617340    6.865898
H   17.965513    2.194024    7.129176
H   65.047112   61.921661   73.559219
H   52.757561   89.365822   86.659676
H   49.332165   23.688538   36.600883
H   59.967861   39.888924   37.282780
H    6.796551   16.595669   76.418640
H   60.122322   17.948690    8.625809
H    9.811748   68.320625   62.968731
H   77.000618   99.540230   50.928371
H   23.525639   25.381821   42.967854
H   92.415230   28.566957   37.145012
H   20.905457   11.380378   91.777191
H   81.695679    4.182956   35.986313
H   50.377541   69.978180   57.083473
H   35.315727   82.696426   93.856766
H   72.724754   77.468811   71.418106
H   77.108215   95.954300    4.967497
H   97.140533   47.001854   23.169699
H   36.671047   49.110046   81.804466
H    0.648746    9.084511   63.320202
H   78.721565   24.215670   70.561737
H   92.103981   53.146416   84.663979
H   83.645187   80.817513   44.555870
H   16.766901   29.957119   65.162354
H   71.251511   90.292343    3.655400
H   48.824455   24.994390   72.702034
H   83.945282   93.625900   78.899460
H   96.706352   35.194321   83.343605
H   27.104151    6.614357   96.562149
H   96.282211   62.057003   21.257729
H   10.151409   60.629360   65.149094
H   47.395042   58.936962   64.161636
H   41.992153   35.060699   80.172676
H   48.653046   81.613739   26.178335
H    1.390570   14.621600   55.011528
H   37.235065   58.661674   30.854502
H   89.081284   59.704624   22.215359
H   75.030289   10.084082   31.237831
H    8.650332   82.232780   99.348953
H   32.455116   99.830879   50.407364
H   13.540208   11.270529   83.473335
H    9.280237   39.125896   99.443756
