100
TIME:    5.750, STEP:  5750
H   28.473017   94.717949   93.881729
H   41.673531   16.447081   40.661518
H   78.598358   87.582367   55.849720
H   82.441727   95.749420   24.985420
H   43.668823   33.645279    9.799608
H   38.854824   94.978691   48.188442
H   51.611797   49.605984   40.110569
H   67.947632   86.050034   80.248222
H   12.281960   33.454422   38.144867
H   17.708673   98.944847   32.853489
H   65.404037   97.606491   85.880241
H   36.379906   11.908272   83.638054
H   77.147507   13.876457   53.672783
H   70.375282   87.352760   94.816917
H   50.439919   56.414200   74.376190
H   70.328705    8.813029   55.740936
H   61.726326   62.287159   96.833527
H   24.027807   15.043144    0.201680
H   34.825970   19.572168   66.292755
H   37.601524   83.705116    7.819303
H   23.063560   83.786682    1.179870
H   13.638443   51.717194   29.612640
H    8.972239   47.857841   67.836044
H   84.800285    5.614962   80.028671
H   23.930946   30.156059   79.004921
H   20.334578   56.676239   49.713104
H   66.250977    3.455340   14.054522
H   47.373127   24.830254   56.839333
H   36.199425   70.777008   85.367035
H   21.473663   48.527336   40.496719
H   42.354362   37.669224   54.457237
H   28.815617   93.646851   66.957756
H   75.380119   47.784676   15.802365
H   21.052853   46.769493   29.512060
H   37.842636   24.263937   74.862366
H   72.475342   35.793770    1.348525
H   31.299152   93.957153   61.542828
H   26.334843   53.727871   28.203190
H    2.361496   56.133781   87.094826
H   21.608049   73.888115   90.432457
H   42.279495   53.477661   77.813210
H   15.635470   64.151764   73.505974
H   60.768955   97.980988   16.802910
H   12.187519    9.156515   42.940323
H   57.884975    5.027720   48.153667
H    3.902557   72.589279    6.521193
H   86.656540   37.543106   80.660088
H   56.546497   54.593109   24.355307
H   33.108047   56.233932   15.103641
H   46.472607   18.250029   81.501389
H   43.106770   14.518030   14.041333
H   84.572121   30.182079   96.584206
H   28.144230   55.349182   68.919273
H   43.533745   13.384545   85.548546
H   82.971153   62.508457   49.255268
H    0.757354    6.485281   96.883224
H   60.775467   23.633171    2.860224
H   97.899078   33.871468   65.448593
H   43.766548   81.720451   70.053459
H   79.577713   69.753128    0.066918
H   22.415119   11.170879   66.079521
H   94.839180   74.421890   35.185112
H   64.429314   14.913183   39.175690
H   37.881729   73.085815   71.029480
H   60.552010    1.600732   31.041910
H   48.114311   56.423515   86.168205
H   26.235535   47.153896   44.672745
H   83.173836   46.386326   41.085850
H   43.482067   36.627998   99.601624
H   46.878723   37.350380   89.625275
H   39.444908    4.170628   93.172432
H   99.853897   60.693665   77.610550
H   32.081146   33.887497   14.316750
H    3.631656   85.501305   61.507957
H   39.401714   36.838207   37.287491
H   61.595055   76.094658    9.027945
H   89.017693   28.173964   92.739754
H    2.125788   74.742851   31.990763
H   37.246006   36.629162   81.835808
H   17.539581   95.789467   25.553417
H   23.390543   88.768051   23.652880
H   72.764572   81.760406    5.953135
H   81.575401    3.279437   77.544907
H   45.740234    4.198753   38.243153
H   72.351768   89.218880   90.354462
H   18.953510   20.260414   41.080750
H   51.184227   85.280937   97.725616
H   48.504814   44.953075   35.959198
H   75.011826   74.021538   81.163216
H   57.962215   72.706467   29.766531
H   59.336357   83.914734   54.891277
H    3.740671   27.933969   43.086250
H   54.039520    0.046463   63.660908
H    2.983443   62.018993   14.512618
H   57.177803   34.679806   48.214451
H   68.848007   68.670441   70.453903
H    6.194693   97.661598    6.501409
H   27.178499   70.967117   63.447868
H   34.796204   61.636288   63.415451
H   96.366486   31.080891   43.825291
