100
TIME:    0.047, STEP:    47
H   14.144183   17.711060   99.102982
H   99.962791    7.293013   80.965271
H   80.571960   77.285255   22.788010
H   81.484497   30.714533   37.587067
H   94.750076   76.524780   64.430946
H   27.287518    1.162498   83.400200
H   50.506367   64.512703   94.127945
H   16.192190   92.668457    3.878017
H   52.472649   81.774475   97.128014
H   73.556175   17.062176    9.529055
H   95.883209   68.133667   35.222382
H   54.048161   26.046349   89.583900
H   40.272583   58.863831   20.457729
H   52.754917    4.932355   60.817940
H   81.074730   65.822830   48.513966
H   99.632019    7.627532   29.138905
H   20.287191   85.105293   77.633980
H    2.149188   92.414902   97.916794
H   45.996162   80.325485   65.837143
H   91.377144    4.546942   19.394449
H   61.487503   51.539017   55.965416
H   66.854469   44.161972   15.253384
H   85.116508   94.239967   31.006458
H   14.674763   37.245457    3.583553
H   27.901632   82.445305   36.905289
H   46.437962   26.214520   84.764854
H   58.026730   40.523663    0.899036
H   28.574738   58.632977   68.329880
H   12.193025   53.356045   54.950378
H    2.796281   89.676407   87.125267
H   17.950594   26.256952    5.692829
H   68.724976   51.211487   94.913078
H   73.669250   65.043480    2.031086
H   80.087975   69.415436   69.771400
H   79.603569   55.367355   27.590637
H   76.641563   88.178032   20.482611
H   84.308372    2.812408   12.167601
H   62.045616   58.094013   25.758272
H   48.608273   79.504677   37.622185
H   58.765766    7.782845   41.732025
H   32.029629   57.791683   43.445171
H   27.397079   13.965847    5.008538
H   11.646638   63.781780    4.868477
H   76.358398   13.559541   85.326797
H   52.577942   30.037544   60.129234
H   77.351173   64.087700   83.502602
H   36.576344   28.275890   28.024847
H   56.241924   95.865723   71.486038
H   66.400932   28.556629   42.599693
H   26.875525   31.464764   80.377457
H   43.535061   65.107491   53.922810
H    7.417584   59.378479   70.977402
H    9.854364   22.281250    0.139728
H   75.595963    6.435490   33.889668
H   37.018112   62.626026    0.805004
H   93.625046   12.483036   91.026810
H   99.232246   88.190636   60.457542
H   22.560354   72.447914   12.344383
H   93.984367   40.754929    7.874846
H   55.921928   31.400389   62.262436
H   62.665573   76.384384   10.731870
H   97.243011   27.507889   93.227402
H   77.421562    3.948131   30.333710
H   46.267021   42.050148   25.864866
H   34.186874   57.091213   99.937828
H   98.458229   39.936665   48.964870
H   83.797478   49.986492   69.331467
H   77.119102   20.225212   68.449471
H   59.246399   46.409203   57.285908
H   31.338894   50.508354    1.631932
H   20.540476   92.206337   61.583714
H   70.090843   49.965691   60.063778
H    3.926874   15.982311   60.544552
H   29.156456   46.405994    0.415264
H   64.436081   28.710573    4.960597
H   26.768881   10.584421   92.767441
H   71.222992   22.470524   91.863342
H   34.188477   47.646824   17.035622
H   63.807472   53.362003   18.212521
H   97.220474    6.394057   16.871943
H   11.801912   29.767073   82.797836
H   44.850727   44.534500   82.850403
H   20.769775    8.041829   34.376282
H   53.403763   16.183445   59.137276
H   50.042686   45.945908   43.196083
H   50.217777   10.774665   45.048985
H   70.293739   99.935631   25.784344
H   56.711777    1.531227   95.249413
H   56.658638   91.555672   27.816525
H   62.179329    7.353310   25.892035
H   25.946016   75.968552   34.454296
H   81.764153   99.041634   34.420578
H   88.299889   29.039701   22.550764
H   51.771133   16.083086   29.988026
H   55.779102   45.520130   17.167465
H   97.803558   93.875664   65.021294
H   58.871635   70.377632   34.485863
H    7.037982   16.637848   55.283119
H    6.473028   37.052891   41.114605
H   42.160381   77.495338   93.159042
