100
TIME:    8.376, STEP:  8376
H   50.887199   53.901939   91.477554
H   69.151810   58.748699    6.238185
H   23.746675   76.507095   25.018448
H   82.882492   87.558586   81.046089
H   20.142931   44.130589   38.596710
H   98.126953   92.133751    8.249000
H   13.984452   26.925402   45.467274
H   61.549210   13.232913   39.137512
H   47.729805   80.974365   72.848770
H   45.981667   36.651951   35.674995
H   21.139908    3.269259   32.931084
H   36.153076   43.536083   96.716713
H    9.639984   54.997337   92.723404
H   40.351372   79.258705   94.656700
H   82.340889   21.847214   48.098259
H   64.742462   79.133324   37.760040
H   50.558968   35.977863   35.888680
H   80.179550   87.262932    9.173544
H   75.722717   29.736752    4.643237
H   66.849289   27.940489   86.609657
H   67.233009   22.359844   29.905554
H   65.395622   55.203247    5.984489
H   73.910530   26.503336   92.702377
H   40.806778   37.029510   84.999527
H   30.009804   21.901329   98.398598
H    8.113831   79.179001    2.662882
H   39.807106   94.295975   66.163986
H   25.799433   47.403065   43.639000
H   93.298576    9.028465   61.233910
H   22.166008   83.533249   49.256317
H   45.704502   73.147194   46.696617
H   94.623161   21.092693   23.855766
H   60.352161   55.654182   52.373184
H   32.008682    6.112315   18.883665
H   72.500160   25.489250   34.655071
H    0.749436   41.474670   93.093513
H   83.166161   97.786873   68.461388
H   17.797203    5.665487   13.512969
H   91.517693   98.920006   32.615318
H   74.267258   28.049997   97.040527
H   62.811203   43.582298   39.679409
H   94.330139   74.449646    7.570817
H   83.371063   13.732941    6.481279
H   44.507587   53.235626   99.696564
H   30.100151    1.420603   72.868095
H   70.005028   22.672043   17.189718
H    7.176578   80.353218    5.867529
H   56.698849   81.640076   86.836983
H    9.870972   38.749527   10.351173
H    1.595995   58.221516   97.882072
H   42.926456   60.994820   41.723267
H   12.202097   86.508362   24.204411
H   82.611977   70.575623   16.407095
H   82.722473   70.545456    1.426902
H   73.885201   92.637238   71.587250
H    4.028057    3.722984    7.487991
H   27.254135   47.860603   52.614784
H    2.361934   85.877174   97.807518
H   50.872799   92.683952   68.461487
H    6.290109   71.596146   25.377220
H   88.064804   89.048706   61.335995
H    1.637307   49.979446   16.366699
H   42.707447   35.720245   59.102997
H   18.204300   87.390656   99.728561
H   64.783066   91.866608   75.589218
H   86.798103   25.877434   41.438847
H   15.546274   37.942333   71.455307
H    1.778012   96.569145   66.623840
H   74.361755   47.940392   34.904785
H    0.136943   69.347672   84.078247
H   56.055119   25.497589   61.677742
H   83.523895   73.483788   70.002487
H   60.860367    4.000957   46.990475
H   45.818737   19.303207    5.480606
H   65.951477   40.648426   36.375507
H   23.670206   44.396217   32.331177
H   27.502571    0.835518   39.291702
H   25.497477    3.038204   77.018982
H   63.170914   28.915768   11.132418
H   88.758812   52.739250   99.321434
H   74.789314   15.935922   80.605011
H   69.823654   98.790115   86.267769
H   47.675514   47.194492   27.630932
H   26.405155   28.911947   98.399773
H   44.489029   24.951870   35.793663
H   58.520809   16.717499   23.438232
H   26.568956   94.348717   22.943306
H   90.738152   34.818077    8.731918
H   29.511509   27.809607   59.685921
H   25.787619   64.667007   23.639315
H   66.803123   25.710995   10.347922
H   98.038078   25.434444   93.124779
H   22.371098   78.839470   66.733521
H   56.772957   21.335072   91.579643
H   11.774506   99.457748    8.558519
H   85.744827   64.972839   34.817787
H   97.755211   48.360100   55.477348
H   22.109697    0.905154   10.732294
H    9.699708   72.971794   43.460079
H   59.475513   63.688862   90.853226
