100
TIME:    0.493, STEP:   493
H   83.983070   76.810738   98.694656
H   87.556511   31.474384    9.098626
H   88.234863    9.372542   17.551239
H   81.559357   12.338198   13.139810
H   90.755295   12.273644   52.337715
H   20.371510    0.677080   27.568739
H   27.132797   94.626686   29.006014
H   81.137466   31.252720   62.929466
H   41.509117   38.893524   69.055656
H   61.367668   23.464375   26.995165
H   54.397369   86.079559   92.261299
H   37.024403   48.402153   57.836617
H   11.903108   31.880341   76.128258
H   30.671329    3.557235   94.756889
H   86.498650   25.986895   27.073881
H   81.701370   68.616768   92.116684
H   84.430092   14.599869   18.241476
H   11.679547   70.726028   82.454880
H   52.941093   99.033585   89.336258
H   79.304329   95.195465   49.821480
H   35.021225    7.137063   43.861977
H    9.619918   44.750641   77.278023
H   79.161766   90.612679   18.244595
H   73.236481   42.594517   70.461273
H   11.951429   47.075909   40.199112
H   44.398449   12.919921   42.964371
H   19.566450   21.983215    9.749144
H   90.943260   79.450760   83.070419
H   21.891083   93.821068   33.867188
H   19.897257   78.638016   22.580494
H   35.494968   66.252403   70.399986
H   96.885803   38.890274   53.624596
H    5.083479   32.411491   42.210289
H   98.932182   28.542084   50.981636
H   68.517540   21.653305   54.747665
H   15.419499   23.213453   18.947989
H   27.084457   86.480812   47.311718
H   43.613136   49.930912   57.229939
H   28.556396   69.983894   94.874603
H   16.758694   66.031120   76.822929
H    1.551556   73.095695   53.956142
H   87.313133   33.983902   25.961981
H   15.487447   66.456314   37.083115
H   47.877716   21.033594   28.934818
H   13.891735   12.440602   98.294373
H   71.655037   72.471977   85.251595
H   41.285694   52.336452   31.835882
H   56.265743    0.459229   99.082016
H   79.440117   91.619370   24.807611
H   36.229572   38.253170   49.183029
H   43.507008   22.047739   58.614994
H   29.091146   17.991894   41.697891
H   19.105768   24.867310   74.238289
H   65.272141   99.158226   53.570942
H    1.511166    1.723369    4.589489
H   94.183090   12.013824   75.843918
H   27.505936   75.321587    2.875772
H   89.349060   30.329170    0.855983
H   29.158791   59.599136   73.636383
H   26.485939   65.682571   49.587486
H   90.799179   55.642838   75.956970
H   81.413605   23.356583   73.049332
H    7.672293   73.534538   99.736183
H   76.893379   44.476280   13.754622
H   51.891174   21.468746   41.473396
H   71.059608   17.764606   75.335869
H   48.014580   65.404480   90.863815
H   46.310966   45.732712   89.770851
H   81.473625   14.362480   29.312229
H   40.373215   72.941063    0.694060
H    6.376745   61.860729   56.234653
H   33.317196   35.163902   92.716591
H   74.847137   93.921608   49.108044
H   19.339638   18.181349   73.908150
H   85.941208   29.345179   38.771046
H   37.313877   39.169312   62.755680
H   11.715812   83.814812   99.757629
H   55.142365   18.484314   41.667202
H   85.183327   52.058445   23.185581
H   75.347855   82.105034   78.448822
H   20.529453   34.381969    9.454334
H   78.313774   47.447220   45.555016
H   48.989124   15.486108   76.855713
H   84.083771   54.348240   18.400032
H   28.324999   18.045830   99.961754
H   39.946262   27.162556   76.018623
H    0.081063   67.507805   47.051281
H   63.891495   65.823235   90.614922
H   65.914009   66.722694   24.167118
H   22.748325   89.000336   41.836483
H   44.198154    0.052933   43.872997
H   14.763931   32.583931   42.917145
H   16.915699   42.402519   57.054710
H   94.877632   43.137032   60.057888
H   48.068562    5.568939   27.414726
H   34.641388   76.263237   41.984947
H   23.470251   95.972816    8.835997
H    8.675286   20.435272   48.147636
H   85.226768   38.975422    3.756204
H   69.858444   66.041817   50.203232
