200
TIME:    0.562, STEP:   562
H   19.365576   61.406345   20.845577
H   30.834284   37.578995    2.969192
H   11.388829   83.232040   61.208427
H   28.696667   80.737373   36.079475
H   11.791387   91.890289   49.028915
H   79.143372   44.075409   56.018600
H    8.024428   55.075661   55.883923
H   10.104466    2.790878   13.642760
H    0.505274   82.678879   39.864231
H   99.526230   70.388451   83.371498
H   23.417055    1.472772    3.137169
H   32.109314   50.617485   28.084829
H   19.077267   97.694374   48.094475
H   89.184288   54.565472   57.782101
H    4.075676   74.423363   42.186317
H   19.914700   12.699146   47.376785
H   99.355209   22.799351   99.798439
H   28.916058   98.646484   37.787739
H   75.738937   18.044426   47.223969
H   91.080681   75.282677   24.988407
H   61.949409   92.832214   11.088303
H   82.860481   61.122261   58.166077
H   85.362801   60.200256   41.409996
H   15.428548   90.994896   90.576393
H   17.242310   25.654356   33.920528
H   18.394545   76.626556   96.321648
H    5.131442   65.257790   62.028488
H    1.900099   83.412621    1.578546
H   24.630611   46.742378   36.452873
H   78.498596   29.390310   87.487381
H   12.941095   64.901955   16.588493
H   26.070591   71.053207    1.530859
H   19.343040   15.914255   77.112274
H   85.769539   63.929222   43.918518
H   32.536015   76.495712   31.769735
H   22.543045   42.580208   83.168846
H   95.506439   67.479095   88.372292
H   16.987698   53.084637    0.689684
H   41.152969   34.870258   51.589127
H   86.994720   38.364346   51.118256
H   80.600121   90.181824   12.212216
H   29.366594   36.354744   30.283199
H   70.904129   80.384911   62.284870
H   36.563919   78.873024   30.264566
H   39.778999   86.119354   55.983940
H   36.528473    5.458506   46.189854
H   86.042114   10.436598    3.238962
H   82.276604   65.545692   36.071854
H   99.533203   16.532711   61.398487
H   50.594410   19.254622   92.089890
H   70.548355   66.420509   15.107608
H    8.829176   41.240215   70.464607
H   60.861000   85.211525   12.137707
H   17.614254   88.978836   86.471550
H   63.569321   69.223755   80.359550
H    1.177843   64.417488   89.192230
H    4.511538   17.963966   46.200520
H   70.926620   66.064850   99.491661
H   21.386641   80.697739   14.914420
H   35.655910   94.181068   61.041733
H   49.376663    9.094099   32.828705
H   95.723442   17.187677   51.534477
H   80.318329   31.876928   74.021545
H   31.927792   65.611732   10.856842
H   76.524567   80.879395   31.096712
H   26.108469   29.071077   38.651199
H   74.147316   16.369923   92.487770
H   95.538231   92.182014   93.646599
H   27.976072   10.204616   57.904198
H   43.383411   47.242237   50.965397
H   58.323906   82.161392   81.894409
H   23.090759   15.358031   42.510838
H   87.713516   31.229900   88.713455
H   18.355700    1.886908   69.946815
H   83.065872    6.084010   52.472290
H   61.452690    7.708605   60.773338
H   94.066589   41.937492   67.590919
H   14.628782   11.833384   36.956764
H   13.978626   44.039219   27.806759
H   63.424030   88.871124   78.990997
H   57.034527   24.659922   96.353210
H   40.795216   62.799633   77.902824
H    9.743436   17.198370   80.858406
H   14.173666   72.388863    4.346237
H   27.441734    2.728857   48.656914
H   33.738945   74.508057   21.079811
H   50.286896    3.455086    2.509540
H   72.653725    6.559875   23.587326
H   75.541519   72.840973   78.330444
H   21.831329    0.480092   51.322994
H   27.744869   37.672512   79.322250
H   81.812492   91.360626    5.393799
H   62.556118   13.230534   86.559097
H   45.588818   82.865211   77.946205
H   33.284004   52.570534   81.350716
H   55.937294   34.908554   13.921912
H   83.673546    3.141821   12.196899
H   98.042854   33.442146   51.642292
H   29.721611   66.552429   54.022369
H   72.803169    3.159606   27.329020
H   24.232695   89.329346   84.102333
H    2.545901   81.528137   64.088432
H   29.854155   25.402182   35.002430
H   37.348381   68.533997    2.949463
H   24.911894   23.241127   35.527134
H    0.170747   11.007849   28.815313
H   80.911736   34.095005   54.760666
H   62.853909   46.637543    6.290394
H   80.979713   36.025101   14.702930
H   14.710521   23.570833    7.113215
H   51.431061   93.268639    1.022401
H   98.923386   71.442566   94.178963
H   51.501442   84.011246   86.931419
H   62.133415   12.455425   66.650452
H   53.104805   95.377045   15.482427
H    0.897503   96.377724   93.460648
H   19.335972   12.976792   87.933884
H   39.137432   42.845654   27.542046
H   31.091005   69.802856   67.625381
H   79.280235   53.101498   61.354622
H   43.915291   23.899189   76.968452
H    4.395468   19.852085   57.659836
H   39.999458    8.241947   33.581379
H   99.333176   55.731613    3.764340
H   67.281334    0.979497   82.163490
H   59.519253   71.162262   19.314180
H   87.382820   50.693405   58.619125
H   68.385414   90.095421   37.722103
H   96.430321   40.828022   77.552208
H   83.352386   22.623142   71.987343
H   61.607170   73.688507   15.716778
H   69.340523   89.245041   16.920536
H   91.386299   98.260887   99.770401
H   85.131577   21.258762   53.670284
H   20.333179   95.547852   41.620392
H   53.781860    1.213593   78.937782
H   69.425812   87.385048   71.368401
H   93.964897   54.167049   78.110619
H   54.729767   48.836700   71.473930
H   43.622368   93.646782   86.510315
H   66.558960   53.599449   25.311432
H   42.414780   50.794495   53.753231
H   44.654343   62.687695   88.523331
H   42.958351   14.871870   83.460304
H   55.437450   59.087952   59.597813
H   57.738266   67.523331   14.424454
H   52.346916   95.367668   44.976315
H   33.860039   61.432625   66.977562
H   73.793427   51.348251   94.743423
H   19.726345   92.190285   77.946991
H   64.870430   66.778488   48.913326
H   47.342018   98.199959   38.061577
H   91.134384   19.798473   92.161133
H   18.421841    8.533787   67.995384
H   26.381054   62.382786   66.578651
H   73.060982   44.327320   63.967461
H   62.681805   70.540344   84.568527
H   50.624062   31.493530   17.267937
H   97.644447    0.521054   90.663261
H   60.069607   43.805573   90.598099
H   57.118904   71.327644   74.854408
H   28.485647   21.387611   32.754433
H   79.079857   20.530830   37.098164
H   23.094187   29.639050   57.422401
H   55.871071   33.014381   12.988422
H   17.461460   54.193775   60.541622
H   69.355141   92.358833   55.635235
H   23.913502   45.582886   61.327839
H   98.448280   27.123056   36.096596
H   41.167496    8.029765   86.777313
H   73.213501    9.463145   35.949051
H   35.039162   53.486984   58.446922
H   43.894447   63.618267   81.363846
H   67.260880   66.836006   81.709991
H   56.471863   92.614273   84.090996
H   10.848908   49.400169   23.595671
H   32.109844   62.979965    0.377828
H    4.583818    9.507942   68.997574
H   67.366829   13.894019   65.368774
H   70.983223   57.909172   90.927376
H   75.539017   96.728371   34.232613
H   25.722475   30.499111   81.371307
H   50.809406   89.828476   12.446075
H   58.493187   25.816227   89.036324
H   89.687012   74.368240   77.070236
H    6.001379   38.940842   85.565773
H   42.564209   99.009026    6.399897
H   74.951431   80.863960   36.793686
H   97.293312   62.609325   70.223495
H   55.469032   56.521709   69.771255
H   63.202679   20.371017   77.002022
H   45.013229   93.679840   20.522985
H   11.252828   25.184521   65.182549
H   29.478079   76.381943   39.802563
H   73.844528   39.872791   20.762989
H   76.114273   11.173571   25.154816
H   11.601649   94.339531   14.335065
H   19.551439   91.006569   37.885651
H    7.619367   12.512877   63.616096
H    4.649322   24.083473   93.275208
