100
TIME:    8.252, STEP:  8252
H   59.272942   65.273399   91.591080
H   72.576492   52.028942   98.419632
H   21.615236   67.585892   26.473938
H   82.861679   92.667229   87.842476
H   21.254061   34.191441   41.958954
H    0.049343   92.268089   95.969002
H   20.483234   18.551958   35.770313
H   71.295364    2.505525   50.523163
H   50.777962   92.896423   80.653641
H   49.368507   34.871494   30.819778
H   32.674088   98.279922   44.874901
H   40.886139   37.320568    5.543080
H   17.547218   62.502312    5.046360
H   46.491203   79.640907   85.220848
H   80.834785   32.923508   54.061180
H   69.728119   89.978783   48.053009
H   60.530281   27.776600   24.600470
H   77.528732   93.296806   13.471663
H   73.790894   24.534451   98.110474
H   70.190720   30.573805   78.167152
H   74.591347   34.704784   33.270931
H   53.507618   55.038635   16.544220
H   75.566109   27.511347   96.250046
H   52.328659   35.546112   94.208328
H   34.444649   31.735466   97.482826
H    8.698544   82.834518   14.332081
H   50.500252   99.450027   63.704159
H   36.262024   41.615162   39.539787
H   90.602348   97.778305   67.095604
H   17.411659   86.602219   39.398529
H   40.823856   62.027550   56.507103
H   86.793694   24.518322   35.335075
H   51.617329   64.726753   41.202286
H   26.769012   17.476021   24.107252
H   75.586159   34.877800   27.110365
H   89.970230   31.761641   93.483284
H   71.272484    2.328107   58.690639
H   22.922401    7.934813    4.762956
H   96.751213    1.621641   44.631981
H   85.947128   39.658752   87.284912
H   71.285873   39.327934   36.758022
H    4.780255   73.963379    1.240454
H   82.303925   12.989113   97.524635
H   52.425037   51.153381   87.572052
H   40.855820    6.312514   62.257103
H   71.605736   20.307404   16.685949
H    6.207197   73.609810    4.676707
H   56.691280   80.362915   79.164558
H    6.246616   49.018845   15.297806
H   98.992920   56.334156    6.552076
H   42.934971   72.966072   40.415833
H    6.175519   98.014160   32.344635
H   80.040627   69.856628   23.608862
H   85.594666   72.568100   95.955093
H   83.758125   81.770966   70.533356
H    3.873615    3.853420   11.709244
H   19.393448   51.438545   40.821388
H   11.595096   97.587318    1.001454
H   41.092587   87.444756   77.980591
H   14.472688   62.065495   28.904076
H   80.242905   94.815796   71.004311
H    6.038338   51.133621   21.977219
H   34.288593   44.181671   67.606049
H    9.689423   86.715179    3.095343
H   59.860947    1.769964   64.041794
H   94.415657   32.041862   34.106998
H   25.495356   33.655804   65.468735
H   10.343739   89.477592   60.695923
H   68.182190   56.850243   42.682220
H   97.618568   63.119045   84.341248
H   59.993504   33.934998   63.164925
H   93.735504   77.600975   60.913212
H   68.945267   10.134562   50.170132
H   48.548077   27.151123   12.847971
H   59.978149   40.465839   26.973715
H   20.738413   36.448494   40.674347
H   16.240379   11.568321   37.092148
H   19.672205   11.145809   70.169617
H   57.225021   29.279995    9.748590
H   94.839989   59.494011   10.004017
H   72.361763   14.653085   73.193695
H   60.518707   97.985977   96.642097
H   39.831856   45.120762   15.821454
H   17.874195   18.300634    9.725130
H   50.526688   32.708492   47.814110
H   61.375027   12.162765   14.827300
H   18.287279    3.364585   17.030525
H   88.743889   44.741142   10.017593
H   26.937794   34.713554   60.700081
H   36.751064   69.768082   19.206621
H   61.728535   19.015835    7.729258
H   88.863335   16.108807   90.761559
H   14.422476   75.119621   57.144409
H   44.789406   13.812123   83.218498
H   13.918716   10.565132    5.709269
H   75.502945   69.869568   41.222511
H    7.597673   41.243950   62.608635
H   22.349047   94.769188   13.221811
H   15.606576   72.436333   53.846706
H   51.773762   66.871262    2.798173
