100
TIME:    4.707, STEP:  4707
H   99.007729   90.365517   94.836624
H   70.479530   59.930748   74.898010
H   60.663727   12.544562   68.093590
H   82.266663   38.722649   82.156746
H   53.010880   50.044312   38.077728
H   55.032337   96.108650   44.896381
H    6.277156   79.177216   58.546535
H   49.925377   95.817810   76.013268
H   37.920891   33.734619    3.797380
H   46.209877   83.968910   92.009857
H   62.421356   55.638859   86.347290
H   76.188637   59.628212   57.879509
H   43.703659   76.948418   57.310791
H   22.018082   90.567574   15.444362
H   37.755730   49.579010   24.510632
H   12.265537    0.037489   42.319275
H   45.598244   93.302734    1.885129
H    1.724095   65.789467   36.356884
H   18.581509   75.818680   11.346170
H   65.699791    5.857611   36.807045
H   84.956673   87.620453   29.488522
H   13.645020   50.332596   18.433716
H   22.898796   56.340492   97.676514
H   81.710175   93.134735   57.491150
H   61.234650   12.870384   71.302101
H   25.089159   87.505325   47.792934
H   56.189743   46.813389   93.360695
H   35.378994   76.146561   22.359667
H   13.520450   76.147942   34.669014
H   81.480865   74.341331   57.581459
H    1.304126   44.141125   36.976082
H   62.960064   22.463387   63.513481
H    1.911385   24.095545   21.840689
H   76.983261   42.354218   73.452919
H   63.768036    3.106905   11.352531
H   81.809296   54.101231    4.629072
H   31.261881   32.156235   79.358566
H   69.441399   72.814140   54.600437
H   46.389606   78.860283   88.169266
H   19.846994   71.530373    8.370893
H   13.561760   17.692968   53.240582
H    8.582384   23.110155   23.939280
H   51.784985   91.726425   41.465279
H   78.785370   91.652649   40.960915
H   48.357891   46.176270   58.901386
H   17.360950   52.695637    2.282321
H   78.508102   80.820213   70.649605
H   56.490795   43.850540   59.820412
H    2.622849   42.615528   56.711617
H   24.597553    2.374899   54.449509
H   43.185505   15.212982    3.046114
H   33.883110   26.964582   65.057526
H    6.508705   49.301514   29.493410
H   67.685844   30.405243   39.522606
H   66.016632   71.099617   40.382702
H   99.455734    7.582416   32.389420
H   94.655823   53.728279    3.662253
H   75.562637   32.369942   92.312973
H   61.506630   37.651871   50.124680
H   48.404591   89.583420   29.732307
H   56.621979   59.673100   47.400497
H   31.854013   84.129990   82.377701
H   93.618431   86.085617   10.697350
H   66.262062   67.404190   99.342117
H   19.150587   84.903992   33.911900
H   12.187038    8.274002   24.497900
H    9.916842   11.096614   94.315536
H   55.221107   86.735184   91.224419
H   91.497787   11.571320   65.019257
H   25.750494   84.891113   91.821533
H   72.563850   75.135574    5.683027
H   85.853363   95.308609    1.245823
H    0.085593   85.479012   41.061768
H   26.589001   51.511990   23.479301
H   89.114754   35.350163   58.220669
H   36.934891    9.246847   79.207596
H   94.319839   18.574516   74.294365
H   53.123745   42.941502   74.390709
H   87.230827   39.692783   70.202003
H   68.684998   52.601315   15.408850
H    2.980685   77.977737   61.315182
H   94.496635   74.967850   93.180687
H   15.602236   85.836975   78.215103
H   73.983170   14.947062   33.505157
H   23.137579   54.460312   91.461632
H   42.961163   81.951103   68.651550
H   81.524605   61.115677   47.991501
H   31.721045   28.440409   46.792450
H   53.367538   32.093391   89.693611
H   50.177044   15.615982   92.481705
H   16.652550   27.596676   32.865032
H   26.569166   49.490532   23.216436
H   87.181419   68.753441   83.004074
H    2.176548   98.746552   44.187138
H   75.209404   28.105179   24.247871
H   82.700470    9.857624   24.326485
H   88.983086   37.805599   66.485046
H   24.143370   56.314972   80.713585
H   84.482574   57.140324   50.777092
H   31.580835   57.841961   44.300320
