100
TIME:    6.945, STEP:  6945
H   47.659988   85.131172   92.787674
H    8.672756   81.203606   16.009335
H   99.148361   73.555199   41.818462
H   82.642303   46.516937   59.485088
H   32.965317   29.429716   77.398087
H   20.319706   93.684059   66.533676
H   88.982758   30.297260   33.561199
H   74.022987   89.432892   70.527733
H   82.906517   18.560089   62.925274
H   85.066902   16.104906   79.642586
H   54.248047   45.689610   70.771217
H   90.768799   71.807632   98.576897
H    0.891857   41.610401   34.931328
H   11.206549   83.669441   85.757530
H   64.959969   49.671196   16.918156
H   22.280525    4.293850   56.545410
H   65.631508   41.328129    5.619103
H   49.583111   56.895309   58.774628
H   53.434025   69.706207   29.251507
H    5.408951   58.325077   89.180534
H   52.150574   64.821564   68.741310
H   28.204254   53.303574   27.847351
H   93.016441   38.138985   33.646820
H   73.767952   19.910616   91.277313
H   81.191597   35.386986   87.830299
H   14.861004   21.362072   37.327408
H   63.204876   53.782928   37.767979
H   46.542488   80.608833   96.336380
H   62.183235   79.196846   28.877573
H   67.295288   18.951378   35.495720
H   89.384697   44.826965   59.912712
H    4.268880   60.625553   56.330620
H   59.554577   60.353004   23.457403
H   71.544487   37.254837   79.169815
H    8.113913   33.836067   47.591629
H   76.354744   29.391308   97.591591
H   45.914635   50.194946   55.704136
H   76.941887   31.855885   12.531493
H   51.923016   30.095602   71.290283
H    9.052425   62.016575   84.452927
H   60.609955   94.484154    5.966478
H   14.927328   68.837967   34.514896
H   71.055939    5.148928    3.119436
H   35.881718   29.214193   59.780106
H   54.227798   57.875896   50.412785
H   88.477715   95.382095   11.376062
H   95.992477    2.530129   92.129433
H   56.611507   66.901230   98.295197
H   68.036812   57.264149   67.437180
H   71.551025   36.440777   97.937111
H   43.024715   99.148193   26.636997
H   42.654545   19.294449   18.140450
H   52.933697   62.278198   99.513374
H   15.863266   93.887421   38.279251
H   87.823380   67.232430   59.420864
H    2.245748    5.228257   56.202606
H   36.534481   89.151207   16.514885
H    8.916926   21.018011   34.669174
H   38.014145   32.216190   78.316612
H    0.721443   61.605091   66.078270
H   97.796104   55.595634   72.908371
H   52.426308   63.298996   81.115158
H   45.556911   33.369179   57.230957
H   19.939983   79.595444   38.583599
H    7.980921    6.158238   42.326908
H   74.705170   97.016930   56.826447
H   30.358580   88.468994    2.366084
H    0.626948   14.729190   98.213760
H    3.038656   50.762924   24.654057
H   71.087364   97.454521   87.108948
H    1.496472   22.863983   78.840309
H    1.346820   21.019455   65.115318
H   54.164398   74.780594   83.679016
H   77.320808    9.870815   90.505707
H   97.018059   38.543110   27.876564
H   89.840691   52.683002   28.619390
H   97.536713   24.693089   13.912024
H   58.269054   96.603386   97.984947
H   94.552010   33.119068   95.165047
H   58.935562   30.693092   22.603111
H   46.775970    1.131135   95.075912
H   62.442856   89.510101    5.986084
H   57.163155   23.262976   91.349701
H   27.954903    6.457569   29.098766
H   14.165556   14.470588   74.512550
H   91.450302   64.158127   24.065247
H   30.995638   98.394386   54.707787
H   67.723717   49.328495   23.569023
H   99.810410    7.486137   71.389656
H   52.307995   23.539417   72.482315
H    8.240772   48.441063   80.127487
H   92.158569   17.809803   65.852455
H   30.641254   35.904072   56.072090
H   18.474350   34.517906   95.089737
H   36.518394   27.638763   75.675232
H   67.550110   21.481211    8.730688
H   11.341145   66.239029   37.776291
H   24.871866   30.098354   39.460709
H   77.869347   66.792397   63.321812
H   70.590736    0.415706   28.706440
