200
TIME:    0.414, STEP:   414
H   14.817885   61.897526   18.314869
H   29.515154   35.418365   96.960884
H   14.490746   76.754105   53.918633
H   23.707798   79.007515   39.949638
H   13.362741   88.139252   51.156799
H   83.958069   48.092361   60.399139
H    5.880172   55.180672   53.019268
H    6.787869   96.400116   18.896069
H   94.494835   84.897659   43.474689
H    4.736094   72.461571   89.209206
H   18.258532   98.311226   98.460236
H   31.497314   46.667152   21.033003
H   15.444789   92.782570   54.160271
H   96.179375   53.941051   50.650387
H   11.221120   73.284050   42.550468
H   24.228619   18.797123   50.569458
H   92.392868   15.867779    6.984077
H   32.430290   91.531708   40.422611
H   70.814713   23.402527   45.045273
H   90.609825   77.315147   30.725620
H   60.173256   85.444183   17.868748
H   86.155342   55.465218   63.869415
H   89.794716   61.276337   44.961174
H   12.293744   89.645561   91.040474
H   10.809426   19.702040   39.201565
H   18.517057   70.058289    1.209738
H    2.265284   62.288120   56.077866
H   98.503448   77.307304    1.189113
H   18.397137   51.240913   37.319496
H   85.186554   25.425581   92.606949
H   13.134321   58.718723   16.407547
H   28.761921   67.584457   97.887016
H   22.919060   12.729628   75.304504
H   90.667793   63.767754   41.331635
H   39.638371   82.611191   32.895557
H   27.377502   45.954674   81.471733
H   91.258575   70.673462   87.261208
H   24.308262   49.256252    7.344067
H   46.630478   40.169926   48.299347
H   88.414062   38.972958   56.899506
H   80.556084   97.095612    7.299716
H   22.000017   39.458214   34.671753
H   73.568924   83.784782   56.789295
H   36.893631   71.684853   24.971392
H   34.722099   81.603882   50.643059
H   38.611191    9.310179   44.580250
H   83.253113   17.687546   99.994286
H   85.879723   65.547951   41.392410
H   93.809540   22.149105   61.291782
H   55.890690   18.586729   98.351028
H   74.069046   68.293770   20.972958
H   14.486643   38.692852   67.282661
H   56.868874   89.442726   10.204580
H   19.816944   85.855606   84.279869
H   69.833847   72.515228   85.146019
H    3.075098   68.063515   84.345917
H    4.933910   17.403908   47.788105
H   69.309677   62.624332    2.162955
H   24.509588   77.838730   11.334872
H   39.078930   95.012123   63.777664
H   49.855988   11.981619   37.152786
H   93.063164   16.837076   50.399681
H   76.240967   28.811003   79.014648
H   28.341892   65.400581    7.552393
H   74.145447   78.673035   25.044748
H   31.914278   23.321161   35.990921
H   79.675636   19.491741   89.430031
H   96.367027   91.845528   90.716454
H   22.711691    8.204608   59.777458
H   44.235355   44.662693   50.973301
H   58.388832   79.601608   77.935608
H   27.250267   19.248213   43.546833
H   83.016251   28.671246   93.669296
H   13.534017    5.140060   65.637978
H   81.263748    3.688235   59.431244
H   57.711815   12.933612   61.740456
H   94.692139   36.427803   69.684364
H   20.110489    9.138384   42.017616
H   12.853428   37.445545   31.084682
H   65.654251   89.696533   86.009796
H   50.753063   27.161272   98.550537
H   34.287357   65.461296   82.478142
H   10.320855   15.574935   85.188698
H   18.999937   67.549324   99.522675
H   32.712044    1.163819   52.851143
H   29.569393   79.686340   24.160698
H   43.653702    3.146687    2.170230
H   73.884499   12.068295   18.005089
H   71.011368   72.480774   77.797485
H   22.572617   93.846306   52.951229
H   33.948792   36.394878   79.980545
H   82.843407   90.062103    2.164499
H   55.525463   14.899700   90.774216
H   52.225399   88.182381   73.882393
H   29.533909   54.572517   75.186684
H   62.066322   31.599579   20.880541
H   81.665916    8.260885    5.822963
H    2.111326   31.142525   50.241016
H   33.075188   68.035004   53.497879
H   70.229836    0.754877   27.292887
H   17.629423   85.237305   77.133217
H   97.042610   79.289032   64.904808
H   26.786253   30.811094   32.934391
H   30.236921   68.260742   97.072083
H   25.108084   25.186089   30.728809
H   94.311577   18.253889   35.744476
H   73.900841   32.257313   55.449448
H   63.726177   40.955093   12.013330
H   77.218513   37.893280    7.546375
H    9.956233   25.634356    6.388865
H   49.483841   94.554741    0.918272
H   92.980667   67.720886   92.493141
H   54.071953   82.293808   90.150627
H   62.634758   15.646122   70.466980
H   58.043709   89.214142   20.671734
H    6.937451    0.706979   86.783981
H   25.420963   10.892804   86.208542
H   39.888317   35.560940   30.500420
H   25.470377   64.246307   74.940018
H   75.374504   50.147640   55.833641
H   42.370613   22.915699   81.818153
H   10.781338   23.358097   53.306396
H   36.431343   14.484032   29.190859
H    1.513679   61.057251   10.245476
H   71.709862    4.643914   87.058357
H   54.097073   67.113129   22.171778
H   91.061592   50.002365   64.334885
H   71.622688   88.934654   36.472134
H   94.609001   46.185276   80.924980
H   76.178894   23.324627   69.465950
H   55.632835   78.972931   10.060863
H   75.021278   87.777145   13.430333
H   91.869576   91.060295   98.669479
H   92.388626   17.464252   51.848965
H   13.021873   98.223938   48.421265
H   57.723724    1.403538   81.118172
H   69.180786   87.007912   64.000694
H   92.702507   58.788097   80.449089
H   50.861298   46.766968   71.508934
H   43.542198    0.744672   90.622681
H   59.231899   57.951759   20.530609
H   49.228073   46.297653   50.303112
H   49.412018   59.963619   93.515305
H   49.740028   20.229155   81.007790
H   48.480755   63.996368   54.758274
H   52.315521   64.973709   21.512695
H   48.846550   96.015800   46.036022
H   37.901268   66.941750   67.826683
H   69.836884   57.527527   96.214706
H   15.008503   90.574471   83.485474
H   70.087105   64.264999   50.030621
H   41.111931    2.295206   42.699562
H   84.258987   25.332439   97.356354
H   14.509563    5.136656   71.652702
H   20.512295   58.474232   63.901413
H   68.667458   43.960346   59.414162
H   61.132610   66.101654   82.816086
H   48.519890   33.868134   13.800598
H    4.418171    1.078706   96.152061
H   61.728893   49.844269   84.918472
H   55.665123   77.340370   78.789497
H   35.434582   22.154587   34.036583
H   72.709190   26.983643   37.159702
H   17.661562   25.291256   63.754112
H   57.288155   27.992483   11.534218
H   14.911555   58.902897   61.350658
H   71.903633   94.752632   54.066280
H   23.784214   38.849197   55.207844
H   96.437263   27.604357   36.446068
H   34.413483    9.146636   88.443939
H   76.040894    7.703083   35.961472
H   40.151955   58.984253   57.992439
H   41.034874   69.977676   85.528152
H   69.083328   70.375893   78.276245
H   63.350647   93.727615   91.049950
H    6.279519   48.600731   23.453680
H   33.630245   58.356659   94.186729
H    3.272118    9.366798   67.105118
H   71.151741   17.334627   67.099762
H   78.023476   56.321587   88.839577
H   78.241074   91.424751   37.673698
H   22.737284   30.318447   75.968323
H   57.624390   89.985214    9.513824
H   55.270027   25.542408   83.591560
H   87.773102   80.787460   77.679977
H    2.903061   37.692001   84.825050
H   37.410767    1.544082    3.120552
H   82.061691   74.594917   31.614861
H    1.579464   61.949337   68.532028
H   52.777702   57.326794   67.901382
H   56.132504   25.267578   78.058907
H   46.226501   89.657806   22.408102
H    7.965447   21.663548   61.792076
H   32.063557   70.475357   36.819912
H   78.923447   46.483402   21.247112
H   75.752945   10.810408   27.182487
H   10.617877   90.303947    9.339704
H   23.852655   93.948006   42.059555
H    9.592980   12.098761   70.235176
H    6.192941   29.097748   95.331390
