100
TIME:    6.188, STEP:  6188
H   98.853592   54.551018   93.480728
H   29.577003   40.182995   68.279945
H   86.130493   19.093372   50.706882
H   82.515244   77.704376    0.976660
H   39.745697   68.752914   97.924042
H   32.061199   94.504173   91.564598
H   28.657589   79.181435   74.362740
H   33.521698   23.942806   40.032513
H    1.515040   91.342331   10.573842
H    5.743807    5.234259   50.002964
H   24.662338   15.229916   43.689865
H   19.661507   33.862919   52.460228
H   49.197739   87.389458   10.150810
H   48.687813   86.002724   28.149578
H   55.765450   17.290161   53.320827
H   52.718079   70.503883   19.382935
H   26.505074   91.259285   36.706398
H   33.394520   93.731140   85.017128
H   41.646328   37.948036   89.370361
H   25.802071   74.401894   37.640404
H   97.072037   40.182682   89.290367
H   55.629929   52.298645   92.312943
H    3.123790   44.295616   55.304764
H   44.103733   10.854708   47.499111
H    8.266433   95.419785   82.239662
H   18.337927   43.727249    8.526009
H   28.480381   85.249466   22.746031
H   10.416696   45.274620   71.317123
H   45.723198   10.515968   64.662018
H   38.267872   37.686943   75.316971
H   59.594063   76.945030   19.804070
H   56.471317   81.543304   26.409874
H    6.230963   15.738863   55.260864
H   39.560036    6.629477   11.061003
H   26.954041   91.151649    1.532775
H   10.550072   70.099403   99.971077
H   73.308113   77.917114   96.055641
H    8.232178   45.711193   59.110340
H   83.875000   46.589958   44.648872
H   80.352631   32.883228   24.893019
H   12.345871   68.506172   88.132301
H   78.722992   65.869385   95.868462
H   64.541229    0.607764   48.439346
H   84.218887   16.508200   85.765587
H   19.892941   87.745346   85.633896
H   98.249779   80.943466    8.300634
H   90.078415   61.362564   84.863914
H   56.569889   59.104370   51.456287
H   45.910004   19.960052   97.631241
H   55.660015   24.916975   50.867485
H   43.076694   72.231964   18.658211
H    5.858133   89.539307   67.832436
H   37.230244   57.888855   43.479748
H   33.391762    6.237538    4.876383
H   48.097435    0.891125   52.981236
H    1.302906    6.024548   81.972672
H   88.544395   10.994626   44.517799
H   65.284332   92.506996   54.167099
H   78.310822    0.226675   36.429527
H   50.673767    3.417470   87.609154
H   50.044666   90.801407   31.930744
H   79.293709   70.345047   15.365666
H   94.163536   85.024818    9.140717
H   67.959702   75.471771   59.138432
H   77.936066   66.619980   71.830437
H   21.207817   34.649162   12.066567
H   91.093307   62.295025   65.818863
H   52.918312   71.435524   62.024784
H   65.313026    5.156105   72.133057
H   55.750870   59.382042   88.702972
H   25.536079   74.369461   87.919319
H   63.737103   46.157379    9.677791
H    3.521589   12.223419    3.085398
H   93.988762   57.779522   35.482994
H   60.517757   37.463100   70.490372
H   71.948341    4.165031   79.555054
H   28.785599   90.213280    0.486599
H   22.703823   46.102608   56.181145
H   58.248432   35.342617   86.721336
H   96.060165   71.929909   87.819511
H   31.961939   93.299362   49.831028
H    5.639488   84.600830   69.314812
H    9.278886   10.603801   19.256927
H   75.873436   41.679955   98.239555
H   51.025200   61.823563   47.895142
H    8.871677   36.349358   71.496674
H   80.437248   53.434776   18.611212
H   55.549065    9.903303   31.417862
H   84.101181   49.633995   77.580940
H   19.236097   54.686428   45.422516
H   77.261101    7.566475   64.141037
H   36.148235   60.875992   51.430412
H   82.116272   13.189221   97.532120
H   45.313374   88.591988   44.046295
H   49.605568   95.445663   58.279575
H    5.025034   51.373932   47.830765
H   71.428062   22.796694   81.311646
H   26.333055   92.641220   54.655922
H   13.930869   63.524334   26.727203
H   23.571970   19.841167    1.630197
