100
TIME:    8.314, STEP:  8314
H   55.080070   59.587669   91.534317
H   70.864151   55.388821    2.328845
H   22.680956   72.046494   25.746193
H   82.872086   90.112907   84.444283
H   20.698496   39.161015   40.277832
H   99.088135   92.200920    2.108922
H   17.233807   22.738680   40.618793
H   66.422287    7.869195   44.830338
H   49.253883   86.935394   76.751205
H   47.675087   35.761723   33.247444
H   26.906998    0.774620   38.902992
H   38.519608   40.428326    1.129961
H   13.593624   58.749825   98.884995
H   43.421288   79.449806   89.938774
H   81.587837   27.385361   51.079720
H   67.235291   84.556053   42.906525
H   55.544624   31.877232   30.244574
H   78.854141   90.279869   11.322603
H   74.756805   27.135601    1.376981
H   68.520004   29.257147   82.388405
H   70.912178   28.532314   31.588331
H   59.451618   55.120941   11.264343
H   74.738319   27.007341   94.476212
H   46.567719   36.287811   89.603928
H   32.227119   26.818398   97.940712
H    8.406216   81.006760    8.497467
H   45.153679   96.873001   64.934128
H   31.030825   44.509113   41.589394
H   91.950462    3.403404   64.164757
H   19.788834   85.067734   44.327423
H   43.264179   67.587288   51.601860
H   90.708427   22.805508   29.595421
H   55.984745   60.190468   46.787735
H   29.388847   11.794163   21.495459
H   74.043159   30.183525   30.882719
H   95.359848   36.618149   93.288399
H   77.219322    0.057390   63.576015
H   20.359802    6.800150    9.137984
H   94.134453    0.270914   38.623650
H   80.107193   33.854294   92.162720
H   67.048538   41.455116   38.218716
H   99.555145   74.206512    4.405647
H   82.837494   13.361027    2.003057
H   48.466312   52.194504   93.634308
H   35.478027    3.866573   67.562675
H   70.805382   21.489723   16.937834
H    6.691867   76.981514    5.272124
H   56.695065   81.001495   83.000771
H    8.058823   43.884186   12.824490
H    0.294596   57.277836    2.217003
H   42.930714   66.980446   41.069550
H    9.188826   92.261261   28.274532
H   81.326302   70.216125   20.007978
H   84.158569   71.556778   98.691055
H   78.821663   87.204102   71.060303
H    3.950836    3.788202    9.598618
H   23.323792   49.649574   46.718086
H    6.978515   91.732246   99.404442
H   45.982693   90.064354   73.221039
H   10.381398   66.830917   27.140648
H   84.153854   91.932251   66.170021
H    3.837835   50.556534   19.171959
H   38.498020   39.950958   63.354523
H   13.946861   87.052917    1.411920
H   62.322083   96.818207   69.815506
H   90.606880   28.959648   37.772923
H   20.520815   35.799068   68.462021
H    6.060875   93.023369   63.659882
H   71.271973   52.395317   38.793503
H   98.877754   66.233292   84.209747
H   58.024311   29.716240   62.421333
H   88.629700   75.542381   65.457687
H   64.902817    7.067739   48.580303
H   47.183407   23.227165    9.164309
H   62.964813   40.557133   31.674612
H   22.204309   40.422356   36.502762
H   21.871475    6.201901   38.191925
H   22.584841    7.092007   73.594299
H   60.197968   29.097881   10.440504
H   91.799400   56.116631    4.662728
H   73.575539   15.294503   76.899353
H   65.171005   98.388046   91.454933
H   43.753685   46.157627   21.726192
H   22.139675   23.606291    4.062501
H   47.507858   28.830181   41.803886
H   59.947918   14.440131   19.132782
H   22.428118   98.856621   19.986916
H   89.741020   39.779610    9.374756
H   28.224651   31.261488   60.193001
H   31.269239   67.217545   21.422968
H   64.265831   22.363415    9.038596
H   93.450706   20.771626   91.943169
H   18.396763   76.979546   61.938965
H   50.781181   17.573597   87.399071
H   12.846611    5.011407    7.133894
H   80.623886   67.421204   38.020149
H    2.676466   44.802025   59.042992
H   22.229372   97.837212   11.977053
H   12.653142   72.704063   48.653393
H   55.624638   65.280014   96.825607
