100
TIME:    5.569, STEP:  5569
H   40.713295   11.316293   94.047440
H   46.672462    6.638708   29.248379
H   75.485764   74.560287   57.974957
H   82.411346    3.206676   34.906845
H   45.290024   19.137331   14.707054
H   41.662235   95.174782   30.262781
H   61.097340   37.383457   25.956133
H   82.173874   70.390396   96.866219
H   16.731285   50.856781   49.538841
H   22.654024   96.345955   25.765509
H   82.240219   90.323517    3.315597
H   43.288651    2.835969   96.522041
H   88.697525   24.822323   71.657890
H   79.337456   87.910652   81.043617
H   48.238731   72.582016   83.075989
H   77.606155   24.644058   70.765350
H   76.281227   50.315960   80.356384
H   20.157087   23.849964    6.475904
H   32.007511   11.978488   56.757168
H   42.477554   87.549599   95.496071
H   33.804359    1.805064    6.092487
H   96.285797   51.476913   45.026474
H   11.389195   49.329903   73.014496
H    1.617207    3.449679   93.470551
H   30.404011   44.510727   77.668190
H   21.159678   62.027306   66.733170
H   81.858139   10.979532   10.463093
H   62.644726   16.381783   50.855804
H   32.263802   54.355106   93.923218
H   14.533775   53.007042   26.107811
H   35.230194   21.438816   68.777382
H   17.387119   98.648544   83.713844
H   62.631313   61.027702   99.496452
H   13.404742   63.357109   37.137276
H   42.341675   37.946487   63.839882
H   56.741138   21.616734    1.917767
H   13.938912    0.585622   47.280682
H   33.815289   57.040699   15.431042
H   10.001893   60.077690    4.635123
H   38.655933   90.832008   76.192406
H   54.649780   47.267662   73.548927
H   31.110458   61.799171   64.431099
H   59.209896   96.895584    3.729313
H   23.744556    6.118383   25.243563
H   73.585503   12.168805   32.665264
H    6.238215   69.136978    5.785853
H   85.242477   27.699604   78.922890
H   56.536831   52.728867   13.156043
H   27.817741   71.224487   22.323826
H   42.676456   15.495092   94.161667
H   43.119740   31.992887   12.133246
H   75.775658   46.978138    8.466537
H   24.389507   54.299683   79.430840
H   47.724838   16.338028   77.561302
H   97.382439   46.645824   47.715542
H    0.531897    6.675675    3.044907
H   49.301399   28.855812   85.645622
H   11.376563   50.964500   70.110580
H   29.491972   74.072914   83.948280
H   91.522675   55.840923    5.214973
H   10.997129   19.588081   80.192528
H    1.263102   76.106613   43.375351
H   52.140553   27.264795   51.587402
H   25.452427   72.099838   75.942795
H   53.367081   16.056973   14.185706
H   59.233482   65.421593   75.466072
H   40.757568   40.896946   35.934280
H   95.676689   36.034946   32.433002
H   34.460514   49.633507   10.953813
H   43.212379   28.246258   90.006409
H   45.192299   16.486008   95.343239
H   14.777925   66.700668   64.359238
H   43.882492   42.840004   18.958023
H    7.615620   96.957420   72.262566
H   30.675573   36.579975   23.566242
H   57.315582   64.494926   21.206774
H   72.584740   43.862431   89.538780
H   93.622070   86.577339   21.994280
H   28.566921   37.160816   79.816902
H   26.414497    5.649045   41.146851
H   19.848482   86.895523   12.835340
H   59.179565   80.586624   21.094030
H   70.127571    0.252723   60.307964
H   33.288475   88.710251   54.774151
H   81.164803    0.539723    7.900299
H   23.119747   13.611972   28.511612
H   39.095650   98.441109   89.094864
H   45.593834   59.437550   37.835869
H   71.255722   84.099495   82.643562
H   73.964844   80.152390   23.296228
H   51.929100   74.140579   51.068890
H   90.348503   14.321504   39.638092
H   42.437027   94.616676   49.663898
H   85.490089   51.037914    2.308308
H   60.306969   50.893192   44.055119
H   53.898163   75.818085   79.802734
H   20.561335   87.274315   16.911102
H   27.306684   63.654388   66.916008
H   43.418671   60.856068   78.575249
H   85.123032   35.725063   61.262173
