100
TIME:    7.151, STEP:  7151
H   33.728836   66.239876   92.599075
H    2.983994   92.365501   28.998280
H    2.689824   88.375908   39.399685
H   82.676880   38.029999   48.192745
H   31.119818   45.941525   71.812424
H   17.124531   93.460884   86.933762
H   78.185486   44.207981   49.670666
H   57.831795    7.254930   51.613403
H   77.842644   98.753784   49.957546
H   79.440376   19.062761   87.708321
H   35.086426   53.978519   50.928535
H   82.907379   82.133408   83.913353
H   87.754112   29.144253   14.460144
H    1.006923   83.034492    1.433353
H   67.462044   31.270256    7.011992
H   13.997116   86.276306   39.445801
H   49.066261   54.952808   24.372095
H   53.988461   46.871292   51.634598
H   56.641773   78.347168   40.103786
H   99.859390   53.951160    3.205948
H   39.926239   44.313095   63.149601
H   47.953674   53.577042   10.304535
H   90.266045   36.463600   27.752546
H   54.627563   22.374971   75.978821
H   73.823677   19.049629   89.351662
H   13.889721   15.289982   17.941610
H   45.440456   45.218979   41.855854
H   29.161423   90.224220    3.145334
H   66.662453   97.886971   19.140383
H   75.194427   13.852762   51.872368
H   97.491295   63.298630   43.614647
H   17.275600   54.934589   37.260155
H   74.064583   45.280830   42.015511
H   80.248314   18.376114   70.491135
H    2.986972   18.238960   60.125580
H   94.262184   45.526047   96.944069
H   65.672043   42.651001   71.936188
H   68.426659   28.085484   27.067734
H   43.227047   25.607740   51.327118
H   89.649162   42.730793    0.659867
H   46.531067    1.553148   10.819357
H   97.566505   69.645798   45.030842
H   72.828766    6.384642   17.998638
H   22.728535   32.671837   79.922112
H   36.359650   49.748867   68.040474
H   85.818474   99.311234   12.212969
H   97.601852   13.733590   94.106575
H   56.624081   69.022964   11.041012
H   74.059395   40.203831   59.219650
H   75.876221   39.576229   83.534462
H   43.010571   79.260468   28.808239
H   52.667385    0.178537    4.618102
H   57.207027   63.472656   87.549934
H   11.093292   90.527222   47.369705
H   71.421585   85.284462   61.173260
H    2.502321    5.011565   49.189880
H   49.593365   83.207207   36.107140
H   93.577805    1.563340   29.362875
H   54.260345   40.921589   62.502617
H   87.126686   77.438187   60.219139
H   10.790878   46.016396   56.846756
H   45.114967   61.381577   71.795242
H   59.543072   19.311584   43.104919
H   34.085781   80.717606   32.990078
H   16.157459   89.705780   61.510532
H   62.050201   86.776024   69.006775
H   13.830267   95.591736   12.312209
H   86.397163   26.511103    8.061751
H   13.305973   35.961075   11.733609
H   75.261681    7.815619   86.675171
H   94.955116    8.847760   76.369667
H   84.394859   14.164575   80.212639
H   40.733032   64.593124   78.398254
H   72.785011   96.833069   78.265656
H    6.942765   38.844646   43.495258
H   94.709679   65.886253   14.758212
H   16.246124    6.862672   17.565336
H   67.947311   83.134300    9.361659
H    4.430860   32.513981   97.462807
H   48.832962   19.470688    4.856192
H   50.807457    3.262734    7.388107
H   77.901497   90.846008   88.751640
H   70.193001   26.708044   10.967775
H   42.126743   24.085827   10.284361
H    4.135252    1.584212   54.543098
H   86.710190   71.724075   38.370453
H   44.753910   83.416512   64.530632
H   71.036766   32.843403   21.433144
H    4.085874   96.016487   69.704842
H   34.094082   15.063480   79.847092
H   16.671131   59.563667   84.477829
H    7.400484   33.302460   69.778450
H   43.846302   42.085392   72.002388
H   38.383041   47.015709    8.979884
H   32.957024    9.185959   80.409058
H   84.564850   13.346980   98.090263
H   94.989922   78.061020   25.928749
H   24.474237   40.290684   35.325684
H   68.055931   67.681953   46.066608
H   83.387154   95.128738    8.861291
