100
TIME:    4.899, STEP:  4899
H   86.023354   72.758095   94.660843
H   65.176796   70.334641   87.003479
H   63.964020   26.357307   65.840660
H   82.298889   30.812382   71.633308
H   51.291153   65.433960   32.871674
H   52.054310   95.900642   63.911518
H   96.214256   92.141083   73.561188
H   34.834557   12.428254   58.384869
H   33.201164   15.274643   91.712074
H   40.962807   86.725746   99.527435
H   44.561981   63.364445   67.852173
H   68.861488   69.252235   44.212517
H   31.451706   65.338066   38.232666
H   12.511844   89.975777   30.056177
H   40.090691   32.428619   15.281355
H    4.545160   83.244522   26.381516
H   30.158791    6.002393   19.363646
H    5.829818   56.447880   29.700888
H   21.571987   83.872391   21.460917
H   60.526947    1.780221   49.879311
H   73.563118   68.507172   24.277340
H   32.052246   50.587479    2.083185
H   20.335320   54.778969   92.183350
H   63.871296   95.434540   43.230896
H   54.367462   97.643555   72.720070
H   24.213915   81.830521   29.738642
H   39.632614   38.831455   97.169289
H   19.178707   85.108475   28.706835
H   17.695473   93.567863   25.593361
H   88.843170   69.589378   72.845131
H    8.860860   61.357433   21.785652
H   75.083107   17.159187   45.739067
H   15.435921   10.048426   39.137566
H   85.095566   24.758514   65.364052
H   58.995575   88.593155   23.043449
H   98.499725   69.139320    4.025007
H   49.676460   25.124268   94.487473
H   61.505337   69.301445   68.149223
H   38.284626   74.676689   69.562820
H    1.762777   53.555885   23.477095
H    0.440316   24.280371   57.764019
H   91.326256   31.727098   32.958324
H   53.438793   92.877792   55.332954
H   66.524628   94.872375   59.733658
H   31.704069   38.601562   75.331078
H   14.883734   56.357746    3.062808
H   80.008102   91.261620   72.492378
H   56.501049   45.828079   71.700294
H    8.234840   26.714649   49.051949
H   28.624409    5.297262   41.021286
H   43.170856   96.676270    5.070162
H   43.214165    9.148420   52.452667
H   10.491317   50.414795   18.342287
H   63.238831   27.271942   47.995262
H   50.729523   87.927742   42.016003
H   99.695969    7.380450   25.853287
H    6.828056   48.188240   21.923241
H   61.265762   14.237423   87.367661
H   76.649940   45.764175   35.383957
H   35.735157    4.340650   24.271370
H   68.733307   50.744877   32.431259
H   25.040293   82.342880   73.691177
H    6.653008   72.984055   97.531311
H   79.445656   68.450089   94.130203
H   26.771437   69.570007   51.791782
H    0.392821   98.729393   35.850441
H   94.512146   17.734283    3.585315
H   41.958412   97.715652    0.403129
H    1.066280   97.775444   52.976898
H   29.640387   94.547363   91.417236
H   66.467171   62.072098    3.379718
H   70.021332   88.936539   15.303214
H   87.567032   75.980965   36.138428
H   22.362858   39.361111   12.071789
H   98.372566   35.624088   72.775360
H   41.474442   21.552267   66.287674
H   11.752039    1.933148   77.689873
H   62.144253   30.386421   84.993248
H   96.438835   39.128819   72.343605
H   59.268982   42.143795   98.868103
H    6.737826   79.964066   72.790764
H    8.902608   76.221756   77.125999
H   27.747255   89.047913   96.499283
H   87.193130   31.377459   15.969512
H   13.788301   42.450058   72.849327
H   38.541729   89.002861   81.984558
H   94.347847   47.155716   57.146774
H   34.811798   13.069000   44.795868
H   57.351913   21.403688   88.123299
H   33.200970    7.716080   99.345963
H   24.509972   37.963688   36.919720
H   40.775288   63.930878   26.874189
H   99.489037   74.516136   97.851730
H   20.734428   10.392808   57.131962
H   71.890068   10.906448   28.659248
H   98.558868    2.276076   14.409433
H   73.742851   48.824154   55.443054
H   24.847960   57.949738   77.640343
H   75.336090   57.967960   34.694572
H   43.506130   52.915691   25.803984
