200
TIME:    0.211, STEP:   211
H    8.580032   62.571239   14.843695
H   27.705807   32.454800   88.719894
H   18.745527   67.868828   43.919792
H   16.864958   76.634804   45.258038
H   15.518044   82.994247   54.075451
H   90.562012   53.602100   66.407890
H    2.939081   55.324707   49.090046
H    2.238753   87.634094   26.101707
H   86.250748   87.940987   48.426872
H   11.882061   75.305107   97.216331
H   11.182857   93.974678   92.045242
H   30.657883   41.248791   11.360472
H   10.462405   86.045433   62.480247
H    5.774452   53.084583   40.868374
H   21.022011   71.721344   43.049946
H   30.145683   27.161240   54.948597
H   82.843170    6.360301   16.840044
H   37.250828   81.772926   44.036659
H   64.060539   30.751814   42.056927
H   89.963989   80.102928   38.594906
H   57.737045   75.310600   27.169094
H   90.674644   47.705894   71.692238
H   95.873627   62.752312   49.832047
H    7.994039   87.794922   91.676971
H    1.985972   11.537608   46.445148
H   18.685099   61.049362    7.914351
H   98.334221   58.214863   47.915863
H   93.844757   68.933121    0.654965
H    9.847169   57.411201   38.508175
H   94.359901   19.987473   99.629059
H   13.399354   50.237675   16.159357
H   32.453407   62.826645   92.889145
H   27.824005    8.361524   72.824928
H   97.386345   63.546280   37.783409
H   49.380116   90.999313   34.439678
H   34.008549   50.583164   79.143936
H   85.432114   75.054924   85.737221
H   34.349396   44.005157   16.471338
H   54.143547   47.439064   43.787014
H   90.360863   39.807743   64.829193
H   80.495682    6.578490    0.561707
H   11.895861   43.715000   40.691036
H   77.224014   88.448120   49.251446
H   37.345871   61.825573   17.711159
H   27.786182   75.410362   43.317390
H   41.467892   14.593217   42.372482
H   79.427658   27.632954   95.543129
H   90.821838   65.551048   48.690201
H   85.958839   29.852673   61.145424
H   63.155182   17.670633    6.939341
H   78.898102   70.863174   29.018028
H   22.246702   35.198833   62.918041
H   51.394749   95.252151    7.548818
H   22.838202   81.571716   81.273712
H   78.426407   77.029884   91.711243
H    5.677414   73.064484   77.698608
H    5.513246   16.635719   49.965672
H   67.091843   57.905239    5.826854
H   28.793091   73.917252    6.425087
H   43.774017   96.152016   67.530327
H   50.513439   15.942204   43.083790
H   89.415642   16.356184   48.843933
H   70.648369   24.605713   85.863297
H   23.423395   65.110962    3.020023
H   70.882195   75.646744   16.743744
H   39.877270   15.434466   32.342026
H   87.258400   23.773695   85.235970
H   97.503822   91.383995   86.697403
H   15.490966    5.461354   62.346863
H   45.403900   41.124535   50.984142
H   58.477886   76.090553   72.505630
H   32.955475   24.584103   44.967827
H   76.573380   25.161739    0.466808
H    6.920588    9.602120   59.728439
H   78.791916    0.402138   68.976295
H   52.580750   20.100449   63.066975
H   95.550156   28.870596   72.555779
H   27.629366    5.441864   48.959190
H   11.310081   28.401367   35.580753
H   68.713066   90.828682   95.636932
H   42.137272   30.592178    1.564083
H   25.361326   69.111740   88.753746
H   11.112856   13.348195   91.128220
H   25.619755   60.911308   92.906342
H   39.940914   99.017197   58.604038
H   23.850183   86.788986   28.386509
H   34.555470    2.723680    1.704841
H   75.572655   19.623669   10.348372
H   64.800926   71.978539   77.060791
H   23.589382   84.747299   55.184551
H   42.458492   34.642448   80.883476
H   84.257431   88.281021   97.735062
H   45.882065   17.189165   96.555763
H   61.328278   95.475525   68.308380
H   24.390066   57.318481   66.731964
H   70.473030   27.060917   30.425205
H   78.912209   15.282221   97.080254
H    7.691921   27.988073   48.318996
H   37.675026   70.068535   52.778477
H   66.700195   97.456116   27.243326
H    8.572392   79.624573   67.574226
H   89.493919   76.217827   66.024567
H   22.578253   38.229752   30.097563
H   20.482399   67.885941   89.010750
H   25.377182   27.853840   24.147324
H   86.275024   28.192715   45.248486
H   64.284546   29.736692   56.394196
H   64.922005   33.160923   19.862968
H   72.059570   40.455715   97.730293
H    3.435154   28.464727    5.395331
H   46.812992   96.318787    0.775447
H   84.829506   62.615940   90.180832
H   57.597721   79.938133   94.566162
H   63.322411   20.022551   75.701813
H   64.818016   80.760971   27.789480
H   15.222000    6.645704   77.626122
H   33.767269    8.034361   83.842026
H   40.918247   25.569069   34.558189
H   17.761002   56.624828   84.972931
H   70.017319   46.096066   48.260944
H   40.251900   21.566723   88.470108
H   19.540390   28.167019   47.335125
H   31.537237   23.045650   23.168865
H    4.504578   68.362473   19.135138
H   77.784126    9.670115   93.772263
H   46.659893   61.558907   26.091320
H   96.107475   49.054520   72.174744
H   76.063004   87.342522   34.757648
H   92.110840   53.533401   85.551147
H   66.339577   24.286798   66.007553
H   47.438309   86.221161    2.303100
H   82.813126   85.763748    8.643094
H   92.532448   81.183807   97.159431
H    2.342600   12.259410   49.350101
H    2.993460    1.894478   57.749489
H   63.130470    1.664069   84.108841
H   68.844704   86.490623   53.894989
H   90.970985   65.126289   83.656586
H   45.555222   43.928078   71.556946
H   43.432236   10.480806   96.263290
H   49.181950   63.921482   13.973188
H   58.573334   40.129688   45.570854
H   55.937748   56.227219    0.362393
H   59.041924   27.577482   77.643867
H   38.938801   70.728859   48.120258
H   44.877567   61.476032   31.235081
H   44.045372   96.904793   47.489540
H   43.444305   74.498184   68.991356
H   64.410004   66.002975   98.232750
H    8.537493   88.358170   91.082222
H   77.242409   60.817440   51.563126
H   32.566608    7.912115   49.061123
H   74.828545   32.922947    4.482680
H    9.143279    0.477086   76.669159
H   12.462578   53.113174   60.228512
H   62.641205   43.456997   53.168758
H   59.007702   60.013954   80.412399
H   45.633762   37.125191    9.044722
H   13.709069    1.843603    3.680357
H   64.004807   58.127075   77.128174
H   53.671085   85.587555   84.186951
H   44.965694   23.206587   35.795208
H   63.971050   35.834293   37.244110
H   10.210206   19.327728   72.439575
H   59.231857   21.104342    9.539599
H   11.414052   65.361870   62.460350
H   75.399200   98.036018   51.914268
H   23.606880   29.613125   46.813526
H   93.678909   28.264519   36.925411
H   25.149532   10.678560   90.729919
H   79.919006    5.288942   35.978508
H   47.164772   66.524170   57.369061
H   37.112621   78.700333   91.240005
H   71.580986   75.239456   73.572250
H   72.785736   95.254700    0.594955
H    0.012016   47.504204   23.258923
H   35.715660   52.015232   85.694839
H    1.472983    9.173203   64.509384
H   76.343208   22.053720   69.474022
H   87.680038   54.144020   85.975906
H   81.947273   84.150192   42.393566
H   18.642731   30.070644   68.557472
H   66.970184   90.195847    5.496059
H   50.849464   25.166630   76.123405
H   85.147942   89.592201   78.516312
H   98.653313   35.979065   83.809059
H   30.342285    5.021320   98.622635
H   91.814278   65.996162   24.511827
H    7.458197   61.044083   66.211975
H   49.086216   58.431065   65.336624
H   46.434898   31.983807   79.508553
H   47.890652   84.141098   24.993769
H    3.456314   16.834105   57.141903
H   35.610233   62.373600   32.728844
H   85.889801   55.550659   21.911146
H   75.257339   10.312285   29.963686
H    9.268514   84.768654    2.487947
H   29.752296   97.982544   47.784573
H   12.300032   11.530750   79.314049
H    8.310216   35.975212   98.151695
