100
TIME:    4.172, STEP:  4172
H   35.186432   39.427612   95.326431
H   85.255379   30.938250   41.163864
H   51.467598   74.054527   74.371284
H   82.176865   60.763969   11.480958
H   57.802826    7.161700   52.584183
H   63.330486   96.688255   91.913048
H   34.316082   43.051571   16.708841
H   91.975319   49.532314   25.134518
H   51.072212   85.172531   37.474361
H   60.830620   76.287102   71.062439
H   12.185745   34.111835   37.881413
H   96.605431   32.811272   95.962013
H   77.843216    9.300758   10.471268
H   48.507713   92.216591   74.731705
H   31.249222   97.367859   50.228992
H   33.778107   46.830742   86.728455
H   88.619637   57.914875   53.181969
H   90.289757   91.816154   54.905895
H   10.248665   53.375420   83.159302
H   80.116447   17.219095    0.381824
H   16.704315   40.881893   44.007576
H   62.354050   49.622375   63.993942
H   30.041817   60.691612   12.983855
H   31.417519   86.718262   97.223343
H   80.369781   55.299927   67.350990
H   27.527990    3.318703   98.102974
H    2.322216   69.053787   82.748207
H   80.520294   51.174561    4.674201
H    1.886556   27.608242   59.959389
H   60.966110   87.582451   15.050686
H   80.250404   96.167244   79.303581
H   29.179701   37.243317   13.041084
H   64.228737   63.238884   73.643661
H   54.378662   91.383911   95.992210
H   77.066299   43.548973   78.773605
H   35.302113   12.198137    6.312274
H   79.947739   51.748520   37.202503
H   91.556190   82.602119   16.848553
H   68.972900   90.517693   40.014153
H   70.236900   21.614353   66.279724
H   50.124832   99.337112   40.636211
H   56.665543   99.098541   98.805984
H   47.176716   88.518188    2.822318
H   12.948740   82.689178   88.650757
H   94.765739   67.283508   13.119906
H   24.263149   42.491322    0.107441
H   74.328415   51.725670   65.514793
H   56.462223   38.340210   26.717613
H   86.982285   86.924774   78.052277
H   13.376887   94.234749   91.869728
H   43.226322   66.863808   97.405716
H    7.884409   76.609375    0.176716
H   95.412575   46.199402   60.567425
H   80.077965   39.136055   15.915294
H    8.613413   24.212206   35.831577
H   98.786331    8.145315   50.602081
H   60.737072   69.165367   52.779396
H   15.399911   82.893547    6.093409
H   19.313826   15.045786   91.196388
H   83.709717   48.462566   44.948982
H   22.873716   84.554588   89.114113
H   50.842186   89.109695    6.583276
H   57.298481   22.593399   47.383904
H   29.522837   64.489838   13.868793
H   97.915428   27.632912   84.089043
H   45.052498   34.870247   92.865005
H   52.841324   92.599854   68.486374
H   92.177055   56.138565   65.648323
H   64.835953   50.013016   98.571045
H   14.911470   57.983459   92.948090
H   89.551994   11.536736   12.101357
H   29.966969   13.064651   62.077305
H   34.969803   11.943081   54.780449
H   38.368862   85.367332   55.267784
H   63.318356   34.586880   17.663916
H   24.285624   74.959679   15.207211
H   45.745766   64.946335   64.832924
H   27.988476   77.924355   44.844528
H   61.573486   41.264248   64.234520
H   94.922333   81.738274   61.499687
H   92.514145   72.442917   29.339109
H   54.355957   71.473892   37.917847
H   81.759590   76.896362   27.262402
H   37.177139   69.166084   82.369034
H   49.187851   87.923470   43.323746
H   55.275730   62.301323   31.499680
H   45.793175    0.014523   22.480711
H   23.110643   71.273872   52.355843
H   42.265244   61.881828   94.069221
H   97.477280   37.628731   73.354736
H   94.757996   98.708275   21.566813
H   86.982178    9.257130   13.022297
H   52.886757   52.698807   41.631695
H   50.468029   66.296829    8.115572
H   84.458595   76.027702   11.955417
H   38.511703   30.982895   51.959770
H   31.448238    7.103152   97.253098
H   22.180059   51.759766   89.277046
H    9.968712   54.834148   95.587486
H   98.350929   71.571053   95.837753
