100
TIME:    2.621, STEP:  2621
H   40.074371   81.662315   96.746414
H   28.362419   46.851807   43.331837
H   24.807417   62.469208   92.570732
H   81.916534   24.665480   96.496643
H   71.694992   82.842224   94.639343
H   87.375862   98.368568   38.312252
H   15.604218   38.320412   95.418465
H   13.880867   15.352283   67.543358
H   89.198753   34.295013   35.104198
H    3.216658   54.017036   10.324046
H   56.455994   71.704193   87.281387
H   55.806175   55.067810    6.363772
H   76.539833    3.133123   64.621971
H   25.304512   96.997200   56.700344
H   12.381199   35.908630   24.782755
H   96.139023   82.486786   15.475573
H   13.342011   55.328346   11.988320
H   57.154381   67.241386    8.678875
H   86.088264   88.307007    1.448248
H   21.905067   50.153522   94.782539
H    8.742767   95.287994   86.104446
H   13.658173   47.563400   96.075943
H   50.749901   73.305794   57.360657
H   75.522202   68.116486   12.414910
H   35.841179   78.303864   55.899849
H   34.641003   49.510639   43.505142
H   36.066887   33.524815   51.977291
H   11.389904   78.779137   53.409565
H   68.161835   86.889809   33.275383
H    1.494838   25.970535   91.750938
H   19.207361   57.084927    2.013770
H   31.248604   80.095741   56.624962
H   54.978115   76.717613   33.917336
H   88.844276   33.523666   61.332336
H   15.620280   60.792633   84.329079
H    0.439699   90.377800   11.630048
H   31.187340    8.548681   14.989707
H   55.658867   10.982304    7.398926
H   34.439751   24.309027   90.318146
H   16.324877   66.814873   44.249279
H   56.123478   46.115398    4.095047
H   96.060600   29.489845   25.937689
H   33.817043   79.217300   90.791191
H   11.990812   56.700165   37.001579
H   29.303602   28.480000   80.396828
H   44.273075   12.908344   93.812019
H   62.209484   67.376556   50.618011
H   56.379391   22.368971   30.750526
H   41.643333   15.378712   39.921494
H   80.854424   70.639366    0.349480
H   43.344654   16.602884   81.052246
H   32.507603   20.529598    1.997032
H   63.249687   37.206177   50.646706
H   15.998264   64.447044   47.473480
H   32.102547   88.275986   22.645765
H   96.845688    9.777405    3.401779
H   62.410282   13.919349    5.266318
H   30.891449   29.366776   46.045364
H   96.990318   49.512722   10.267241
H   86.059875   29.246748   89.063118
H   25.035566   56.681812   10.042697
H    5.889557    3.546902   76.763412
H   52.014240   28.421087   53.747482
H   23.018335   56.052086   55.983120
H   36.353855   51.509701   39.649811
H   40.332954   11.975197    1.159288
H   77.280617   38.977352   93.603531
H   99.315208   67.434937   91.501556
H   87.532249   61.457985   95.847206
H   83.485413   79.972237   96.214050
H   38.804619   17.066690   30.709049
H   57.852867   64.539200   48.519569
H   36.098038   88.661461   94.542717
H   72.511497   83.517731   47.434731
H   88.540550   32.374073    0.087024
H   87.619606   75.555046   19.569878
H    4.924374   99.375626   37.403584
H   55.119671   79.340492   59.189487
H   87.199326   45.820026   46.922722
H   70.986549   66.210342   95.119797
H   62.173130   56.397106   36.639286
H   37.980568   61.344681   67.611061
H   83.631516   51.005341   79.537231
H   30.471493   36.443939   24.030396
H   24.708702   84.939316   93.675972
H   90.967529    5.327278   23.793560
H   42.205391   12.784882   48.522751
H   98.148087   95.450974   68.487770
H   10.075480   48.238777    6.756714
H   34.606701    1.438454   17.912735
H   31.284760   14.958676   88.812454
H   72.218536   92.622368   83.464607
H   53.452229    6.168354   21.683033
H    0.556679   72.216835    3.539699
H   11.274681   14.955933   76.314842
H   10.405486   92.231392   32.071060
H   54.559555   18.094128   86.453285
H   16.488295   38.553925   14.098063
H   83.855156   48.148396   25.501602
H    2.014252   11.380714   45.246124
