200
TIME:    0.801, STEP:   801
H   26.709421   60.613155   24.932329
H   32.964294   41.068119   12.671925
H    6.379615   93.693031   72.980461
H   36.752747   83.530861   29.829685
H    9.253862   97.947708   45.592670
H   71.368286   37.588573   48.944622
H   11.487113   54.906082   60.509953
H   15.460322   13.110560    5.159463
H   10.210823   79.095848   34.033829
H   91.112946   67.040268   73.944389
H   31.747374    6.578109   10.689796
H   33.097610   56.996738   39.472874
H   24.943226    5.626840   38.299034
H   77.888168   55.573826   69.298851
H   92.536942   76.263199   41.598263
H   12.948403    2.851745   42.221050
H   10.597608   33.992821   88.194160
H   23.241102   10.136486   33.532776
H   83.690895    9.391992   50.742268
H   91.841049   72.000511   15.723576
H   64.817657    4.762746    0.138841
H   77.539726   70.257622   48.955956
H   78.205856   58.462532   35.675323
H   20.490831   93.173889   89.826965
H   27.630363   35.266544   25.392368
H   18.196703   87.233421   88.428040
H    9.759909   70.053398   71.637939
H    7.385439   93.271881    2.207419
H   34.696831   39.477852   35.053394
H   67.698448   35.793083   79.219971
H   12.629062   74.887032   16.880697
H   21.724457   76.654770    7.415370
H   13.568253   21.056774   80.031578
H   77.859520   64.189972   48.095985
H   21.066235   66.620041   29.951324
H   14.736012   37.130901   85.909454
H    2.366074   62.320625   90.166542
H    5.165793   59.266960   89.944206
H   32.307533   26.312315   56.901676
H   84.702675   37.381519   41.782318
H   80.671234   79.016991   20.145138
H   41.262619   31.342999   23.196001
H   66.600845   74.894577   71.159485
H   36.031479   90.480949   38.811966
H   47.945210   93.411232   64.608742
H   33.165165   99.238571   48.789146
H   90.545975   98.727249    8.478679
H   76.458054   65.542046   27.479874
H    8.776244    7.463208   61.570801
H   42.041634   20.333178   81.978996
H   64.862915   63.395447    5.636024
H   99.693153   45.353863   75.603020
H   67.308189   78.379112   15.259181
H   14.057082   94.022430   90.010818
H   53.452957   63.908470   72.630051
H   98.114311   58.528797   97.018372
H    3.829477   18.868385   43.636784
H   73.537766   71.620827   95.177437
H   16.343502   85.314651   20.694721
H   30.128197   92.839027   56.623573
H   48.602619    4.431145   25.845495
H    0.019429   17.753851   53.367020
H   86.902718   36.827538   65.958359
H   37.718987   65.952713   16.193096
H   80.366524   84.442368   40.870228
H   16.732872   38.356102   42.947189
H   65.219826   11.328396   97.425606
H   94.199837   92.725395   98.378387
H   36.477097   13.434358   54.879135
H   42.007637   51.407852   50.952633
H   58.219059   86.295097   88.287338
H   16.373716    9.076103   40.837845
H   95.298965   35.361782   80.710442
H   26.142181   96.633591   76.905006
H   85.976059    9.952863   41.234520
H   67.493698   99.270889   59.211575
H   93.056412   50.834896   64.210289
H    5.776707   16.185444   28.784172
H   15.797497   54.684929   22.506996
H   59.821854   87.538200   67.656586
H   67.178238   20.620579   92.804825
H   51.304527   58.500908   70.514305
H    8.810982   19.820000   73.865570
H    6.379914   80.204063   12.135628
H   18.930897    5.256210   41.883801
H   40.471943   66.145828   16.104595
H   60.998608    3.953109    3.057479
H   70.666191   97.664719   32.601856
H   82.857101   73.422646   79.191101
H   20.634251   11.193398   48.693615
H   17.726515   39.735718   78.259193
H   80.147705   93.457565   10.608738
H   73.910469   10.535055   79.752251
H   34.871635   74.278702   84.508713
H   39.339600   49.337601   91.304794
H   46.039742   40.252102    2.684746
H   86.915596   94.874733   22.490051
H   92.428940   37.316372   54.096111
H   24.306038   64.158272   54.869350
H   76.958755    7.042933   27.387369
H   34.896084   95.937439   95.356514
H   11.432592   85.143990   62.770096
H   34.808403   16.667519   38.342033
H   48.832314   68.975266   12.440854
H   24.595074   20.100277   43.275780
H    9.633045   99.306496   17.625408
H   91.277405   36.901836   53.457420
H   61.445312   55.813931   97.048866
H   87.053543   33.008244   26.259800
H   22.388052   20.238523    8.282942
H   54.575558   91.191757    1.190555
H    8.519490   77.452576   96.901337
H   47.350414   86.784676   81.732834
H   61.323814    7.302897   60.487797
H   45.129143    5.329157    7.102192
H   91.143982   89.386711    4.242679
H    9.509382   16.342175   90.720078
H   37.924854   54.609482   22.764671
H   40.167149   78.775932   55.813866
H   85.587463   57.871578   70.270905
H   46.409737   25.487392   69.136841
H   94.083656   14.190350   64.689964
H   45.761482   98.161880   40.671768
H   95.812141   47.131428   93.297997
H   60.129860   95.062393   74.258942
H   68.275337   77.701134   14.699490
H   81.442101   51.809341   49.388947
H   63.157654   91.969902   39.740635
H   99.371506   32.176781   72.105637
H   94.936607   21.490339   76.059052
H   71.254913   65.154877   24.850315
H   60.166870   91.615494   22.556744
H   90.605873    9.888481    1.548754
H   73.412422   27.386383   56.611469
H   32.139858   91.226334   30.637901
H   47.416283    0.906859   75.416748
H   69.821495   87.994072   83.266251
H   96.003487   46.704681   74.334305
H   60.976822   52.179039   71.417404
H   43.751831   82.184731   79.869400
H   78.391167   46.571056   33.031815
H   31.412256   58.056286   59.324707
H   36.971340   67.086067   80.461967
H   32.006859    6.220401   87.420784
H   66.671577   51.161522   67.413010
H   66.495529   71.640625    2.977851
H   57.999535   94.321022   43.265030
H   27.334000   52.536133   65.606346
H   80.182709   41.369556   92.367500
H   27.345072   94.799606   69.003090
H   56.447025   70.837433   47.109047
H   57.402767   91.586395   30.571857
H    2.237255   10.861866   83.771553
H   24.739553   14.019790   62.089012
H   35.858307   68.695251   70.901993
H   80.155930   44.919933   71.321327
H   65.183548   77.708229   87.398483
H   54.022015   27.658867   22.867220
H   86.705719   99.620422   81.799591
H   57.390083   34.053894   99.769928
H   59.466564   61.617905   68.499771
H   17.263832   20.149050   30.683933
H   89.367622   10.110411   36.998787
H   31.867142   36.660149   47.197544
H   53.582672   41.124065   15.336766
H   21.579210   46.589180   59.235138
H   65.239670   88.493172   58.168884
H   24.122284   56.456882   71.210800
H    1.696151   26.345821   35.532246
H   52.074314    6.226170   84.085938
H   68.647644   12.305409   35.928993
H   26.782402   44.609638   59.180851
H   48.512272   53.347824   74.639053
H   64.317871   61.120029   87.255028
H   45.363556   90.816376   72.853226
H   18.226036   50.693485   23.831318
H   29.654602   70.446770   10.374775
H    6.702068    9.735870   72.053635
H   61.254295    8.337814   62.573929
H   59.614521   60.472908   94.298889
H   71.175560    5.293325   28.675997
H   30.543156   30.790859   90.096397
H   39.804123   89.575020   17.181511
H   63.698154   26.258408   97.828880
H   92.777718   64.002068   76.085587
H   11.004676   40.957550   86.761940
H   50.886322   94.915436   11.695580
H   63.469322   90.987617   45.156826
H   90.371590   63.675117   72.954987
H   59.815166   55.221607   72.790848
H   74.619209   12.463734   75.295296
H   43.053959    0.174888   17.478777
H   16.561527   30.870417   70.658295
H   25.302891   85.920280   44.619141
H   65.642761   29.197668   19.981195
H   76.697769   11.760030   21.880400
H   13.190309    0.856536   22.401899
H   12.605445   86.256546   31.145359
H    4.432247   13.181618   52.927177
H    2.156543   15.986098   89.954750
