100
TIME:    3.774, STEP:  3774
H   62.101959   75.926331   95.690811
H   96.288841    9.364305   16.062422
H   44.626366   45.420341   79.041420
H   82.110062   77.161064   33.296932
H   61.367676   75.260246   63.375900
H   69.500984   97.119438   52.498405
H   55.173794   16.175518   85.584648
H   23.257339   15.101432   61.678783
H   60.855812   23.438797   62.528515
H   71.707359   70.572411   55.477463
H   49.206741   18.097340   76.218178
H   11.796326   12.861595   24.291330
H    3.198894   33.375275   50.023682
H   68.214592   93.443336   44.443707
H   26.407524   32.918076   69.361122
H   49.780457   81.641167   19.766382
H   20.624641   31.591465   16.950460
H   81.787560   11.171082   68.705750
H    4.049894   36.677711   62.189503
H   90.841362   25.671190   73.284111
H   40.322205   80.503906   54.808403
H   24.197403   49.094025   97.887344
H   35.355690   63.928520   24.372044
H   68.396004   81.944885   26.783047
H   94.604889   86.862137   64.411659
H   29.351988   15.157454   35.433823
H   36.642460   85.596634   74.853310
H   14.103011   32.597260   91.519279
H   93.232407   91.499039   78.773537
H   45.704666   97.432854   83.411011
H   64.588142   60.476536   10.792076
H    4.049936   48.238480   49.885963
H   36.192768   92.358910   37.788681
H   37.562531   27.858070   12.758747
H   86.959213   73.634605   54.537453
H    0.695734   80.953278    7.659676
H   41.774643   66.323715    5.841788
H    8.006818   89.883644   88.762428
H   85.770813   99.189934   78.583763
H    7.725178   58.874809   34.964527
H   77.325790   85.678940   31.259504
H   92.435501   81.237854   80.107224
H   43.748508   86.131500   74.072929
H   38.363098   76.021027   49.735245
H   29.289442   82.988281   79.061951
H   29.397869   34.900074   98.491859
H   71.219040   30.081371   61.693047
H   56.440968   34.240936    2.091682
H   75.346420   19.887238   93.927094
H    5.029552   88.179970   19.706280
H   43.256687    5.287853   93.209274
H   88.542526   13.539913   26.305698
H   87.159370   43.891663   83.681709
H   89.296776   45.631126   98.353546
H   40.302139   89.330994   32.445881
H   98.288345    8.564352   64.150940
H   35.506802   80.649406   14.926376
H   45.036125   20.479912   16.345413
H   87.924355   98.228806   21.750729
H    9.974565   17.869841   56.269051
H   97.767036    3.064710   20.145542
H   64.967979   92.814224   24.592384
H   30.276773   49.752373   74.675957
H    2.192759   62.324127   24.675694
H   82.119560   59.421810   47.025532
H   69.502388   54.656075   69.332138
H   84.773148   78.838440   49.271404
H   19.669960   33.376968   46.621624
H   44.998634   78.610764   23.533474
H    6.848047   37.963821   93.786163
H    2.190035   38.617256   16.876251
H   62.782509   26.273590   32.936024
H   60.919724   31.628704   64.985832
H   47.132198   10.552814   78.916039
H   44.130718   34.019054   87.492470
H   14.875604   49.451355   41.987026
H    9.609331   99.440964   57.794315
H    9.289714    3.947415   22.863314
H   42.489090   42.433300   59.792282
H   14.441353    3.413065   95.787834
H   84.728561   68.325424    5.552361
H   24.491989   68.874649   71.197876
H   56.580044   70.252502   89.354828
H    9.795797   35.108711   18.720703
H   68.566788   12.817888   81.905502
H   64.436707   47.680580    3.861134
H   19.211660   28.952385    3.502177
H   16.705149    3.138801   56.494591
H   34.005966   84.042198   97.324348
H   32.665997   54.004570   59.126740
H   78.470215   77.215935   13.161782
H   57.533546   79.328667    5.438009
H   27.374367   40.756256   10.853739
H   11.998701   42.153915   81.279564
H   91.339302   11.677120    2.810241
H    5.638537   46.699715   72.516869
H   63.039948   84.262840   20.143034
H   20.719503   48.371033   95.647621
H   28.928612   53.118526   28.924805
H   73.627754   81.785835   34.178345
