100
TIME:    8.033, STEP:  8033
H   74.083244   85.356865   91.791580
H   78.624924   40.160984   84.611832
H   17.850840   51.829895   29.044521
H   82.824921    1.689911   99.845772
H   23.216459   16.637623   47.897110
H    3.445762   92.505348   74.281532
H   31.961052    3.763379   18.644230
H   88.508331   83.558403   70.631142
H   56.161400   13.952662   94.438049
H   55.350105   31.726976   22.244205
H   53.044937   89.467926   65.969376
H   49.245338   26.343166   21.131191
H   31.512077   75.758545   26.809824
H   57.334938   80.315926   68.555916
H   78.174812   52.485672   64.592560
H   78.533432    9.133455   66.231720
H   78.140907   13.292032    4.664037
H   72.847046    3.953320   21.062973
H   70.379044   15.346517   86.571671
H   76.092117   35.224003   63.256599
H   87.587120   56.507542   39.214100
H   32.511875   54.747910   35.194107
H   78.490074   29.291624    2.515859
H   72.677078   32.926239   10.472972
H   42.277534   49.103821   95.865456
H    9.731121   89.290634   34.941177
H   69.385254    8.553782   59.358311
H   54.739815   31.392981   32.300049
H   85.840462   77.908707   77.448112
H    9.014519   92.022415   21.988884
H   32.204006   42.390198   73.833687
H   72.965843   30.568424   55.609016
H   36.190487   80.750084   21.473036
H   17.515079   37.546120   33.332901
H   81.036430   51.459190   13.785505
H   70.932709   14.607987   94.171669
H   50.267811   10.348940   41.434231
H   31.974163   11.942734   89.308159
H    5.995201    6.392721   65.854958
H    6.574997   60.161598   70.055237
H   86.253235   31.814177   31.598478
H   23.236580   73.104568   90.059319
H   80.419220   11.675417   81.705147
H   66.408081   47.475914   66.158600
H   59.851646   14.952505   43.515778
H   74.432793   16.131145   15.796228
H    4.495215   61.700081    2.573470
H   56.677914   78.107285   65.614067
H   99.845406   67.156075   24.033813
H   94.394775   53.000835   21.864704
H   42.950008   94.108849   38.106735
H   95.531921   18.335703   46.720520
H   75.499290   68.586792   36.327827
H   90.667328   76.140350   86.290970
H    1.195032   62.579605   68.672043
H    3.600851    4.083787   19.164520
H    5.510144   57.757652   19.992729
H   27.901747   18.269609    6.642674
H   23.819866   78.191658   94.792557
H   28.923805   45.231808   35.132957
H   66.428421    5.000608   88.080269
H   13.811073   53.172043   31.886120
H   19.420517   59.125641   82.623535
H   94.651237   85.522202    9.041608
H   51.167580   19.261621   43.647552
H    7.868778   42.929039   21.158009
H   43.066193   26.084587   54.895672
H   25.471657   76.952995   50.226456
H   57.267250   72.586189   56.418175
H   93.170799   52.119923   84.805740
H   66.948494   48.837173   65.791481
H   11.769725   84.872459   44.861477
H   83.224243   20.967436   55.785816
H   53.368443   41.011013   25.859617
H   49.428482   40.143368   10.369074
H   15.560523   22.412361   55.409462
H   96.350304   30.523972   33.207451
H    9.384292   25.464886   58.073574
H   46.723808   29.923267    7.304573
H    5.579838   71.423790   28.870979
H   68.074394   12.387429   60.104355
H   44.086021   96.565765   14.963741
H   25.979307   41.458286   94.964874
H    2.807420   99.560059   29.726856
H   61.189972   46.407688   69.043770
H   66.415146    4.118518   99.618958
H    3.660708   19.287941    6.587763
H   85.221764   62.266556   12.288261
H   22.392281   46.907326   62.491219
H   56.114399   78.777237   11.378159
H   52.766163    7.191007    3.104171
H   72.659554   99.638184   86.587807
H    0.384409   68.549889   40.208801
H   23.624578    0.525715   68.451637
H   17.705669   30.182434    0.677127
H   57.414459   78.517822   52.534081
H   24.980433   28.676132   75.203407
H   22.771769   83.932137   17.618620
H   26.039268   71.490639   72.190086
H   38.171474   72.491959   23.895580
