100
TIME:    1.705, STEP:  1705
H    2.020585   65.664139   97.585037
H   53.842583   97.186867   85.551170
H    9.062269   96.569084    3.320668
H   81.762787   62.404198   46.706936
H   79.899521    9.420781   19.474945
H    1.577008   99.360939   47.597912
H   63.609577   76.467979   23.786079
H   85.876656   36.105946   51.647232
H   11.715843   22.364716   92.763039
H   28.246061   40.864632   74.457085
H   41.660080   34.846714   75.514694
H   90.764420    9.153461   71.565361
H   34.807533   58.552528   55.665184
H   70.660042   99.820564   86.991127
H    1.238417   17.729786   68.816116
H   32.970596   62.605461   91.511490
H   86.988022   94.751358   28.591280
H   37.579521   11.786592   40.437302
H   71.817696   49.881523   53.187252
H   46.581551   69.604599   32.416939
H   63.099518   86.479126   10.968060
H   25.834476   46.350342   74.077980
H   62.979820   80.755562   83.567627
H   60.628548   57.130527   80.446426
H   68.603386   50.951675   49.141945
H   38.841106   76.804108   29.363035
H   15.054356   71.603897   33.800137
H   88.679062   36.023342   23.130159
H   48.244537    3.783198   76.576286
H   66.370598   48.641312   18.931133
H   83.171608   74.940872   74.493378
H   73.411957    5.406875   41.423668
H   90.455399   43.736000   51.396820
H   50.141823   17.469521   99.922974
H   38.391380   30.035347   28.551109
H   20.797951   18.420172   14.778378
H   43.330566   42.096046   42.812565
H   93.521156   27.747776   42.758060
H   74.071121   44.111275   78.711136
H    2.601865   52.567387   72.180862
H   18.723717   14.686076   82.513596
H   78.385498   88.378838   82.903931
H   25.927000   73.724319   24.627602
H   70.483574   41.346375   47.439571
H    8.759796   64.617783    2.011156
H   56.090672   95.437050   90.094124
H   54.083302   17.715242   42.192329
H   56.330471   12.937956   74.073677
H   14.870290   91.241661   76.462112
H   61.649097   56.700588   64.413414
H   43.414539    5.036478   71.394104
H   87.993202    5.527427   62.133221
H   44.247887   31.894897    3.845393
H   37.208439   79.388512    7.054007
H    5.024273    7.973997   14.874271
H   95.699570   10.740074   34.584579
H    4.342272   40.350090   18.147268
H   99.099457   15.871253   69.638626
H   24.746742   10.808589   80.590042
H   46.505611   58.840931   15.115378
H   67.253403   99.282661   81.460289
H   38.397369   12.074650   18.207932
H   89.881775   90.884727   16.588722
H   60.119804   51.069267   80.850548
H   99.995491   24.668247   54.345142
H   96.604561   57.512428   46.998257
H   50.773453    7.310079   49.380138
H   62.589760   15.047822   47.711460
H   41.879814   27.275894   53.298904
H   64.923889   33.899315   98.142883
H   67.890862   79.392387   41.698643
H   33.382305   94.939285   81.454216
H   95.821976   33.969822   18.029461
H   92.666405   41.483994    1.875357
H   44.376175   31.069712   30.648960
H   65.969154   16.846720   81.204338
H   21.757563   78.769516   21.201853
H   12.084331   39.234955    8.599807
H   43.278618   48.507664   36.701424
H   15.909252   16.095591   74.033943
H   44.247562   46.920666   81.892738
H   69.251953   55.362503   44.206741
H   25.678043   35.714447   92.292786
H   67.459908   58.060650    7.697029
H   69.310043   42.235947   82.471878
H   12.048588   71.683922   60.183647
H   81.027809   79.385529    4.844082
H   83.402298   68.788193   78.020119
H   91.065376   99.241035   14.250305
H   15.593260   39.127571   85.167107
H   93.798134   65.495056   69.468216
H    4.439768   23.737947   66.007271
H   94.680611   78.718552   50.818710
H   12.021986   16.653070   41.777870
H   27.114174   97.005402   55.265404
H   34.747620   28.402014   79.383377
H   27.267242   65.526939   39.133224
H   13.125321   30.754730   28.756268
H   27.489948   44.199879    2.231917
H   45.127640   34.908360   33.470284
