100
TIME:    7.017, STEP:  7017
H   42.790848   78.528389   92.721756
H    6.684460   85.104851   20.549160
H    0.386371   78.735252   40.973064
H   82.654388   43.550629   55.538250
H   32.320419   35.200832   75.445816
H   19.202946   93.606056   73.663803
H   85.208954   35.159260   39.191692
H   68.363930   95.662140   63.917252
H   81.136620   11.637517   58.392864
H   83.100349   17.138720   82.461678
H   47.550781   48.586704   63.835564
H   88.021118   75.416641   93.451775
H   96.298820   37.254467   27.776619
H    7.641623   83.447517   91.236412
H   65.834480   43.239799   13.455814
H   19.385353   97.996399   50.568848
H   59.841713   46.090153   12.173547
H   51.122845   53.391769   56.279083
H   54.555180   72.726349   33.044537
H    3.469315   56.796329   94.082634
H   47.877991   57.653595   66.786842
H   35.106964   53.399155   21.715881
H   92.055138   37.553413   31.586828
H   67.078377   20.771944   85.930267
H   78.616402   29.676842   88.362038
H   14.521526   19.239788   30.551649
H   56.995953   50.789703   39.196751
H   40.467598   83.969551   98.716019
H   63.748787   85.729317   25.474283
H   70.056152   17.169395   41.219597
H   92.218071   51.283081   54.216301
H    8.814941   58.636478   49.665215
H   64.626350   55.085060   29.943731
H   74.586601   30.656448   76.136490
H    6.321970   28.384651   51.972427
H   82.613655   35.030716   97.365273
H   52.820091   47.558228   61.377476
H   73.965691   30.538074   17.612122
H   48.883648   28.527029   64.312866
H    2.270849   55.275913   90.117477
H   55.689178   96.954979    7.662630
H    8.859442   69.120316   38.190372
H   71.675568    5.580828    8.319952
H   31.284489   30.422689   66.819817
H   47.982620   55.035381   56.573921
H   87.548271   96.755386   11.668573
H   96.554977    6.445875   92.820473
H   56.615902   67.642807    2.750089
H   70.141792   51.301319   64.565353
H   73.062744   37.536663   92.903175
H   43.019772   92.197144   27.395878
H   46.154240   12.613113   13.414207
H   54.427288   62.695679   95.331978
H   14.196091   92.712982   41.456497
H   82.090714   73.541878   60.033352
H    2.335424    5.152520   53.751556
H   41.098751   87.073692   23.362663
H    3.555736   14.218298   32.814682
H   43.692429   35.258854   72.789391
H   95.969917   67.139145   64.030418
H    2.337925   52.247551   67.294357
H   49.870888   62.628830   77.857712
H   50.445278   28.455894   52.293701
H   24.884106   79.987656   36.628582
H   10.838740    0.407651   49.031864
H   70.282074   93.437584   61.083649
H   24.581694   90.958496    5.842380
H   95.653419   18.847139    1.655776
H    6.627263   45.589462   20.138126
H   72.546349    1.075718   86.957336
H   99.210091   17.965179   77.976784
H   95.421806   18.623611   70.392052
H   49.469940   71.219925   81.833313
H   75.735481    5.314002   86.227631
H    0.488222   38.647335   33.335255
H   91.542473   57.297810   23.774694
H    4.075901   18.461094   15.188910
H   61.651745   91.895744    1.961116
H   98.005013   32.907581   95.968147
H   55.404556   26.770699   16.400230
H   48.184967    1.876179   99.379257
H   67.845772   89.977020   99.962608
H   61.717537   24.467077   98.206268
H   32.908314   12.618839   22.522900
H   10.659819    9.966605   67.532936
H   89.793564   66.802536   29.065125
H   35.804356   93.159401   58.141014
H   68.881676   43.566715   22.822502
H    1.304729    3.477368   70.800789
H   45.941967   20.576954   75.056412
H   11.187305   52.328575   81.647995
H   97.485840   23.224689   67.224648
H   35.256611   38.064533   61.639961
H   25.432816   38.886070   99.944595
H   35.273643   21.189240   77.329773
H   73.497009   18.638224    5.011679
H    5.626194   70.370987   33.635544
H   24.732889   33.660816   38.015457
H   74.439415   67.103310   57.290867
H   75.063271   98.567886   21.770222
