100
TIME:    0.595, STEP:   595
H   77.085121   67.456795   98.601273
H   84.719200   37.005001   15.532575
H   89.987366   16.710739   16.353592
H   81.576477    8.135538    7.548658
H   89.841690   20.449394   49.571999
H   18.789822    0.566065   37.670361
H   21.786964    1.513884   36.982548
H   73.120468   40.076710   53.563850
H   39.001762   29.086670   62.635353
H   58.580162   24.928555   30.989656
H   44.909576   90.183777   82.435768
H   33.131077   53.514915   50.576027
H    5.415035   25.709229   65.989891
H   25.620823    3.242745    2.518881
H   87.739098   16.876139   22.170843
H   77.600266   59.695126   83.649887
H   76.229439   21.345291   27.528105
H   13.859086   65.765793   78.918747
H   54.529396    3.312648   94.710495
H   76.543282   93.056976   56.780128
H   28.968399   96.982635   41.093925
H   19.400440   44.885269   68.593330
H   77.799919   89.783119   15.326008
H   63.759583   43.817844   62.886177
H    8.303625   38.986538   40.952408
H   43.930752    9.880862   33.404205
H   10.770864   17.743202   11.773237
H   82.336388   84.211777   86.441574
H   24.108948    3.075324   29.045712
H   23.808092   76.113541   30.688931
H   39.507359   75.399345   62.328514
H    3.325999   36.072418   44.181938
H   12.268389   24.948938   51.399254
H    3.241987   19.194366   46.684425
H   65.982170   13.942864   60.958466
H   24.288235   31.226171   18.597021
H   36.867382   82.745461   55.348949
H   39.397636   48.064014   64.427544
H   23.970863   67.806496   85.098877
H    7.151447   56.482014   84.847710
H   94.580627   76.596031   56.359997
H   78.145958   38.562042   30.754126
H   16.365919   67.067978   44.450317
H   41.364197   22.742907   38.908089
H    5.044010    8.416345    7.022963
H   70.352333   74.389458   85.651588
H   42.362720   57.839092   32.707466
H   56.271191    1.509438    5.393151
H   82.422173   83.171249   20.738802
H   38.368839   39.805676   42.049286
H   43.499226   12.200029   59.690464
H   34.048042    8.527058   35.001495
H   21.221689   25.458740   68.314644
H   62.910725   97.494438   58.072041
H   93.391327   10.665323    5.455040
H   94.310715   11.906628   72.371597
H   33.971985   72.378441   12.576981
H   81.753845   20.696632   98.228714
H   37.203026   63.908798   65.806152
H   19.755302   73.522141   46.686363
H   97.233322   50.899719   68.003784
H   77.793427   22.407181   68.434616
H   14.591059   66.579002   92.738625
H   83.897163   45.031136   10.985014
H   55.940140   13.322113   50.972862
H   64.793556   12.693867   81.366905
H   39.831047   68.931274   95.788254
H   39.265160   51.566086   94.647041
H   86.556816    7.033409   22.914661
H   42.439331   78.070946    0.479569
H    3.137592   54.919979   55.011326
H   24.906878   31.778740    0.184190
H   68.196655   88.875771   46.492519
H   17.094536   11.726454   67.845985
H   90.859421   29.490313   46.503223
H   39.725513   45.706955   55.892750
H   20.976761   74.974480    1.562523
H   59.934509   11.814766   47.300579
H   90.071968   51.759617   24.322918
H   70.345596   76.550255   69.661407
H   22.525532   35.437206   15.550545
H   85.966576   48.113358   37.025185
H   55.442722   17.188475   86.570740
H   91.100006   63.076511    9.083443
H   23.358149   11.665515   90.073967
H   37.598438   30.909191   83.101784
H    6.893438   60.091576   51.915020
H   65.533493   57.656822   89.555016
H   68.030708   61.043404   23.332500
H   13.730175   84.802734   45.483120
H   48.372410    5.560542   46.027050
H   22.310930   40.255409   44.860306
H   23.459957   45.458504   64.945641
H    4.736155   49.324486   66.935158
H   46.305164   96.432465   29.758270
H   43.066162   72.235283   36.716545
H   15.374250    1.826378    2.969819
H    9.049794   21.303741   46.515755
H   80.367699   39.415104   95.211891
H   76.192978   63.422230   40.379257
