100
TIME:    3.243, STEP:  3243
H   98.011871   24.621605   96.176956
H   11.060047   80.575623   82.567490
H   35.498993    7.218756   85.272179
H   82.020935   99.037590   62.404865
H   66.123795   32.698254   77.773895
H   77.733040   97.694710   99.910606
H   83.004311   80.320839   44.059761
H   64.992889   69.161789   10.431875
H   73.908806   74.492126   95.951164
H   86.218788   62.948036   34.682610
H   98.599075   96.731873   27.367632
H   32.064522   86.245636   62.088692
H   36.975235   65.501358    2.801601
H   94.506935   95.080025    4.032902
H   19.947872   80.349625   94.883736
H   71.130325   28.084564   63.844093
H   63.324379   96.470688   68.611435
H   70.444176   36.993675   87.114441
H   95.778542   14.400119   34.215908
H    5.148766   36.946842   37.131126
H   71.832504   33.366577   69.220016
H   73.289917   48.389114   43.106857
H   42.445305   68.247108   39.565094
H   17.731705   75.576385   66.221336
H   13.596189   28.973190   60.490089
H   31.788790   30.979395   85.204643
H   82.431641    7.668534   64.320168
H   58.906094    7.811966   73.969444
H   81.686462   43.322067    3.874557
H   25.343956   10.575768   41.197418
H   43.688068   12.861934   52.803108
H   70.522224   62.907906   99.043327
H   98.789398   31.208469   89.952003
H   15.125455   76.521187   35.127777
H    0.158068   13.774327   22.204758
H   54.520596   39.239628    9.492208
H   90.844978   85.769516   64.001030
H   29.952583   99.598442   51.290127
H    8.183345   10.758299   30.041094
H   57.738331    8.584079   93.186623
H   13.615862   67.456604   18.749372
H   40.158806   57.407524   55.159882
H   39.174694   82.947250   35.719074
H   72.271713   67.124573   97.817589
H   75.348747    3.940522   33.623592
H   36.248463   24.772053   96.336617
H   67.070602    1.202431   56.592575
H   56.412609   28.773001   69.236397
H   59.823280   63.863106   15.108933
H   93.895012   80.101860   56.843708
H   43.297199   56.552902   87.610504
H   62.736332   62.814003   61.166348
H   76.148186   40.812744   14.520489
H    1.595722   54.296661   74.921356
H   82.580551   42.792557   27.930609
H   97.623947    9.123419   82.227432
H    1.844883   95.971077   64.423729
H   84.575920   70.626236   30.024319
H   46.044701   75.793213   62.517529
H   45.013641   77.056198   71.371956
H   64.271645   27.758091   61.544842
H   83.814201   97.756699   48.620102
H   94.227394   85.986382   11.088242
H   65.731743   59.435616   39.093945
H   61.044605    1.830412   97.575172
H    2.122676   81.053749   37.935272
H   27.376892   60.479137   23.634695
H   56.349602    3.007253   21.236753
H   18.532089   16.765022   56.838459
H   96.089417   11.255598   94.904297
H   19.052361   74.745934   23.246777
H    6.567453   43.896347   94.058838
H   95.541351   57.892689   78.597893
H   58.823727   44.156296   10.467415
H   18.530066   33.261478   47.239658
H    2.321726   15.418139   77.716187
H   61.399265   45.465302   48.403614
H   84.342361   38.668743   93.537964
H   17.027243   43.993015   53.865364
H   40.482582   32.332645   41.533798
H   74.341263   62.831982   73.815399
H   84.650299   65.406815   15.599813
H   22.983374   61.388458   38.779545
H   73.262543   89.669281   67.217987
H   94.421600   46.033649   33.379860
H   76.655151   28.174408   66.986954
H   83.747353   67.560402   78.182022
H    8.159124   45.651871   62.016388
H   22.985023   13.607418    1.667786
H   79.614105   75.850540   40.146828
H   56.739532   48.543667    1.947991
H   18.241583   39.397461   95.318825
H   93.337296   24.822851   69.790611
H   60.676960    9.944145   45.477081
H    0.519435   59.242359   90.608238
H   61.780090   67.668770   99.943550
H    5.188575   53.789654   50.681831
H   18.770872   43.849884    4.145597
H   54.224358   50.829594   73.402168
H   40.645687   95.414101   85.331268
