100
TIME:    2.967, STEP:  2967
H   16.676311   49.932274   96.429642
H   18.737816   65.612427   65.157455
H   30.754820   87.362244   88.510765
H   81.974609   10.409399   77.532532
H   68.595901   10.575635   85.257599
H   82.011848   97.993721   72.578453
H   97.470558   61.685020   22.476204
H   86.685944   45.284657   35.774014
H   80.693413    1.028340   13.324503
H   93.761452   58.985085   23.873987
H   24.271912   85.626343   53.952442
H   42.599403   72.411102   81.734993
H   54.530563   82.199661   30.233566
H    8.172704   95.930733   83.030144
H   16.590313    5.003148    8.150569
H   82.227432   52.224457   86.754250
H   85.518593   78.214157   43.486065
H   64.548180   50.415489   96.682800
H   91.478676    2.820921   19.675959
H   12.584038   42.807041   18.339746
H   88.210739   60.844025   76.712143
H   46.829529   48.022720   66.610825
H   46.130302   70.491798   47.461517
H   43.375076   72.266205   86.718346
H   23.466846   50.862076   58.452507
H   33.054501   39.202335   11.074810
H    6.230701   19.141886   58.843334
H   82.194817   94.929253   64.847496
H   75.685181   18.281507   16.920584
H   14.761634   17.407120   19.256500
H   32.824696   88.112198   74.639351
H   53.095345   70.534492   24.593987
H   79.349457   51.402214   65.087746
H    3.463490    1.814985   46.755524
H    7.019210   34.637787    5.399063
H   30.523827   17.557802   10.440831
H   64.371956   95.876938   42.253231
H   41.359230    4.649669   31.814388
H   19.833900   16.771162   56.787781
H   83.734955   34.422478   71.472511
H   32.477810   57.986446   12.247235
H   64.964104   45.019615   42.192902
H   36.797344   81.292160   15.783433
H   89.896530   62.499741   70.830772
H   99.290703   14.829689   10.004935
H   39.809223   19.507771   95.216377
H   64.914352   86.192841   53.941483
H   56.397869   25.931341   52.159065
H   51.756294   86.722710   26.118696
H   88.108513   75.903069   76.148102
H   43.318256   83.198593   84.700409
H   49.322941   88.423782   79.284233
H   70.424858   39.212402   30.550228
H    7.986561   58.800781   62.741913
H    4.555712   18.604233   25.583792
H   97.278610    9.413776   91.623123
H   84.346581    3.935078   38.173912
H    5.127568   96.690750   37.133499
H   24.277946   64.131775   83.705360
H   63.225952   55.842434   79.222054
H   46.861610   40.592411   83.064987
H   93.609978    0.325730   61.109085
H   75.490761    4.820019   30.014389
H   46.778412   57.934242   46.588177
H   50.088581   23.874332   71.872841
H   19.077522   94.774574   21.616669
H   49.520790   50.938152   10.308692
H   75.414726   87.222656    8.042357
H    4.775835   36.596626   74.148293
H   90.496643   97.373604   95.485474
H   27.817390   93.524681   26.558010
H   29.324743   53.056198   73.852417
H   13.537477   71.545189   85.673088
H   64.898399   61.623184   26.870918
H    5.223384   32.867710   26.317009
H   95.797615   97.729118   96.288574
H   36.339176   69.387833   43.522572
H   71.375381   56.716808   78.296814
H    3.792433   44.803715   50.784706
H   54.018105   47.365330   65.311508
H   68.942215   59.976635   57.319248
H   63.942711   63.604324   38.679176
H    5.521013   56.781158   12.491896
H   54.274303   66.051605   92.427582
H    7.860683   63.298389   60.135048
H   83.005981   18.036453   47.820751
H   65.313942   87.627846   65.021317
H    3.717123   67.749222   64.887123
H   17.256432   28.973940    3.925890
H    4.015350   87.204544   30.281380
H   45.444489   33.641537   96.119339
H   97.819031   18.641451   90.058754
H   75.645096   16.541082   48.447105
H   33.999683   93.203011   26.868607
H    5.291791   83.963837   84.265831
H   38.983643   78.567940   14.199747
H   27.095619   37.950481   66.554695
H   17.758024   41.499908    8.561804
H   67.372429   49.639866   96.519157
H   23.503077    2.497063   11.918702
