100
TIME:    5.338, STEP:  5338
H   56.335121   32.499458   94.258926
H   53.052315   94.121399   14.683105
H   71.513336   57.940948   60.687275
H   82.372574   12.724464   47.569618
H   47.359070    0.621744   20.969799
H   45.245174   95.425041    7.385910
H   73.204536   21.784542    7.891632
H    0.330020   50.406094   18.075993
H   22.409706   73.066422   64.080315
H   28.966024   93.029137   16.719160
H    3.727266   81.028671   25.566650
H   52.105888   91.257164   12.964529
H    3.438130   38.791481   94.611259
H   90.775368   88.622658   63.465485
H   45.429482   93.216080   94.179047
H   86.893951   44.848099   89.940155
H   94.856819   35.037800   59.327545
H   15.217177   35.089367   14.483324
H   28.409592    2.287234   44.587864
H   48.700554   92.456093   79.768501
H   47.512230   24.802444   12.362190
H   74.139603   51.170258   64.698273
H   14.473819   51.208611   79.623459
H   23.080486    0.686251   10.626380
H   38.665924   62.830772   75.962196
H   22.212706   68.855316   88.456390
H    1.776754   20.582146    5.879455
H   82.136635    5.599480   43.219368
H   27.240990   33.396763    4.842683
H    5.676444   58.724236    7.744584
H   26.138592    0.724885   87.053368
H    2.801899    5.030701    5.098640
H   46.359165   77.929024   78.686150
H    3.644185   84.526939   46.869194
H   48.083542   55.408249   49.774246
H   36.660465    3.523404    2.644211
H   91.782776    9.045933   29.078716
H   43.362156   61.268673   99.130287
H   19.752926   65.111076   27.020155
H   60.412640   12.457298   58.018055
H   70.437271   39.342194   68.106667
H   51.871452   51.431030   53.579990
H   57.220158   95.510345   87.043251
H   38.493999    2.240908    2.657867
H   93.623878   21.282310   12.897445
H    9.219168   64.731003    4.847380
H   83.437790   15.136407   76.705803
H   56.524494   50.349640   98.863152
H   21.066025   90.356995   31.538483
H   37.831646   11.979124   10.318214
H   43.137363   54.294174    9.698064
H   64.549232   68.413727   23.631905
H   19.597569   52.960266   92.846153
H   53.073692   20.107780   67.367638
H   15.775406   26.401491   45.750477
H    0.244172    6.918665   10.908691
H   34.657700   35.521172   63.675667
H   28.576729   72.779366   76.060410
H   11.274031   64.312798    1.681478
H    6.766758   38.084843   11.785164
H   96.425354   30.330730   98.204155
H    9.461004   78.256729   53.828087
H   36.457043   43.027878   67.427765
H    9.590034   70.841492   82.213379
H   44.197365   34.506672   92.673393
H   73.424248   76.905327   61.807549
H   59.290863   32.911556   24.781303
H   11.633691   22.823458   21.389868
H   22.946821   66.231697   25.442268
H   38.533234   16.627701   90.492828
H   52.527367   32.203003   98.113716
H   33.824844   74.367065   47.445618
H   58.943878   54.265579   24.881416
H   12.700115   11.577400   85.988060
H   19.538149   36.250408    6.054277
H   51.853935   49.689148   36.749905
H   51.611256   63.884945   85.453560
H   82.769272    1.681134    9.236571
H   17.490299   37.839336   77.240288
H   37.740944   18.232147   61.047760
H   15.328016   84.505722   99.029213
H   41.842934   79.088577   40.417374
H   55.516335   96.389587   38.308048
H   17.396193   68.943283   75.872711
H   92.412376   14.989144   30.293068
H   28.436878    5.126945   12.470241
H   23.667685   15.236847   78.079926
H   41.878716   77.921936   40.230957
H   66.462021   96.961418   84.532845
H   94.387421   89.655197   15.038601
H   42.475639   61.666714   46.190594
H   73.256844   96.948318   35.237404
H   27.629427   87.686958   31.800312
H   63.164200   37.023388   86.732338
H   64.300545   71.584770   38.746799
H   34.818527   84.940216   91.734116
H   38.896690   74.017616   30.195999
H   26.458975   61.687561   70.613503
H   54.423035   59.860317   97.922768
H   70.773651   41.651981   83.514328
