200
TIME:    0.531, STEP:   531
H   18.413027   61.509228   20.315496
H   30.557980   37.126431    1.710672
H   12.038555   81.875175   59.681511
H   27.651701   80.375038   36.890118
H   12.120522   91.104599   49.474621
H   80.151855   44.916798   56.936146
H    7.575294   55.097656   55.283894
H    9.409774    1.452335   14.743099
H   99.246353   83.143623   40.620476
H    0.617490   70.822685   84.594261
H   22.336554    0.810574    2.157540
H   31.981125   49.790051   26.607758
H   18.316410   96.665550   49.365013
H   90.649475   54.434681   56.288296
H    5.572363   74.184723   42.262592
H   20.818291   13.976425   48.045521
H   97.896881   21.347467    1.303545
H   29.652140   97.156227   38.339638
H   74.707512   19.166731   46.767620
H   90.982056   75.708397   26.190121
H   61.577377   91.284721   12.508523
H   83.550621   59.937340   59.360695
H   86.291107   60.425652   42.153824
H   14.771934   90.712265   90.673599
H   15.894903   24.407587   35.026691
H   18.420206   75.250771   97.345505
H    4.531103   64.635765   60.782074
H    1.188611   82.133804    1.496976
H   23.324951   47.684639   36.634396
H   79.899452   28.559860   88.559723
H   12.981568   63.606815   16.550592
H   26.634315   70.326645    0.767600
H   20.092072   15.247205   76.733620
H   86.795525   63.895401   43.376671
H   34.023670   77.776657   32.005596
H   23.555668   43.287022   82.813370
H   94.616684   68.148186   88.139565
H   18.521059   52.282745    2.083511
H   42.300285   35.980324   50.900051
H   87.292015   38.491825   52.329193
H   80.590897   91.629982   11.183245
H   27.823595   37.004795   31.202459
H   71.462296   81.097046   61.133770
H   36.632980   77.367393   29.155861
H   38.719784   85.173546   54.865242
H   36.964718    6.265275   45.852707
H   85.457932   11.955384    2.559333
H   83.031311   65.546165   37.186295
H   98.334328   17.709118   61.376137
H   51.703766   19.114725   93.401344
H   71.285797   66.812881   16.336143
H   10.014186   40.706646   69.798119
H   60.024815   86.097733   11.732829
H   18.075628   88.324646   86.012482
H   64.881485   69.913185   81.362122
H    1.575241   65.181183   88.177124
H    4.600008   17.846657   46.533054
H   70.587936   65.344200    0.051240
H   22.040771   80.098892   14.164650
H   36.372894   94.355141   61.614799
H   49.477062    9.698917   33.734425
H   95.166222   17.114241   51.296783
H   79.464287   31.234741   75.067398
H   31.176691   65.567505   10.164692
H   76.026237   80.417252   29.829071
H   27.324551   27.866703   38.093979
H   75.305275   17.023817   91.847298
H   95.711830   92.111534   93.032852
H   26.873398    9.785695   58.296570
H   43.561859   46.701927   50.967052
H   58.337505   81.625221   81.065201
H   23.962008   16.172848   42.727837
H   86.729630   30.693966   89.751503
H   17.345737    2.568311   69.044289
H   82.688400    5.582192   53.929909
H   60.669128    8.803036   60.975910
H   94.197617   40.783436   68.029411
H   15.776956   11.268890   38.016808
H   13.742943   42.658112   28.493351
H   63.891258   89.044014   80.461151
H   55.718815   25.183853   96.813461
H   39.432083   63.357208   78.861168
H    9.864382   16.858326   81.765427
H   15.184574   71.375175    3.335900
H   28.545650    2.401045   49.535435
H   32.865627   75.592697   21.725132
H   48.897511    3.390489    2.438468
H   72.911522    7.713666   22.418074
H   74.592636   72.765526   78.218811
H   21.986599   99.090561   51.664043
H   29.044321   37.404900   79.460136
H   82.028427   91.088638    4.717391
H   61.083481   13.580156   87.441994
H   46.978912   83.978943   77.095001
H   32.498550   52.989868   80.059601
H   57.221077   34.215458   15.379442
H   83.253029    4.214053   10.861823
H   98.895004   32.960491   51.348782
H   30.424049   66.862968   53.912510
H   72.264160    2.655911   27.321451
H   22.849577   88.472229   82.642586
H    1.393232   81.059135   64.259430
H   29.211554   26.535130   34.569260
H   35.858833   68.476761    1.718357
H   24.952988   23.648518   34.522079
H   98.943481   12.525600   30.266724
H   79.443237   33.710083   54.904938
H   63.036613   45.447300    7.489107
H   80.191895   36.416409   13.203922
H   13.714690   24.003057    6.961493
H   51.023197   93.538025    1.000591
H   97.678627   70.663025   93.825851
H   52.039860   83.651512   87.605713
H   62.238426   13.123747   67.449860
H   54.139305   94.086166   16.569387
H    2.162624   97.284508   92.062157
H   20.610531   12.540281   87.572495
H   39.294712   41.319801   28.161705
H   29.913712   68.638985   69.157501
H   78.462143   52.482784   60.198200
H   43.591743   23.693188   77.984268
H    5.733042   20.586452   56.747967
H   39.252083    9.549411   32.661705
H   99.789879   56.847118    5.121870
H   68.208931    1.747043   83.188766
H   58.383526   70.314133   19.912731
H   88.153374   50.548660   59.816345
H   69.063492   89.852287   37.460285
H   96.048828   41.950150   78.258667
H   81.849831   22.770075   71.459213
H   60.355789   74.795380   14.532093
H   70.530411   88.937576   16.189480
H   91.487526   96.752655   99.539803
H   86.651634   20.463966   53.288792
H   18.801769   96.108383   43.044899
H   54.607521    1.253379   79.394485
H   69.374489   87.306053   69.825165
H   93.700478   55.134972   78.600433
H   53.919479   48.403175   71.481262
H   43.605576   95.133492   87.371689
H   65.024239   54.511082   24.310043
H   43.841888   49.852589   53.030571
H   45.650883   62.117111   89.568947
H   44.378838   15.994027   82.946602
H   53.980305   60.116066   58.584126
H   56.602421   66.989288   15.909153
H   51.613731   95.503426   45.198280
H   34.706512   62.586563   67.155418
H   72.964691   52.642559   95.051598
H   18.738142   91.851837   79.107079
H   65.963112   66.252014   49.147354
H   46.037067   99.057785   39.033047
H   89.694267   20.957615   93.249321
H   17.602388    7.822217   68.761444
H   25.151787   61.564102   66.017883
H   72.140717   44.250454   63.013729
H   62.357311   69.610619   84.201462
H   50.183323   31.990913   16.541670
H   99.063278    0.637859   91.812943
H   60.417160   45.070435   89.408447
H   56.814396   72.587067   75.678650
H   29.941196   21.548262   33.022991
H   77.745461   21.882433   37.111053
H   21.956272   28.728363   58.748638
H   56.167892   31.962496   12.683825
H   16.927359   55.180145   60.711082
H   69.888947   92.860237   55.306602
H   23.886421   44.172451   60.045948
H   98.027054   27.223869   36.169796
H   39.752804    8.263704   87.126404
H   73.805725    9.094483   35.951653
H   36.110085   54.638439   58.351727
H   43.295483   64.950333   82.236099
H   67.642609   67.577469   80.990761
H   57.912689   92.847473   85.548615
H    9.891807   49.232719   23.565929
H   32.428307   62.011570   99.081070
H    4.309066    9.478378   68.601181
H   68.159615   14.614698   65.731346
H   72.457870   57.576637   90.490067
H   76.104988   95.617477   34.953381
H   25.097198   30.461269   80.239601
H   52.236870   89.861351   11.831856
H   57.818066   25.758873   87.895866
H   89.286125   75.712807   77.197952
H    5.352407   38.679260   85.410622
H   41.484772   99.539993    5.713009
H   76.440742   79.550850   35.708927
H   98.191109   62.471085   69.869202
H   54.905308   56.690342   69.379593
H   61.721764   21.396648   77.223396
H   45.267361   92.837387   20.917841
H   10.564255   24.447020   64.472305
H   30.019630   75.144753   39.177818
H   74.908356   41.257446   20.864393
H   76.038589   11.097503   25.579531
H   11.395589   93.494240   13.288739
H   20.452370   91.622681   38.759914
H    8.032759   12.426136   65.002525
H    4.972647   25.133760   93.705894
