100
TIME:    4.410, STEP:  4410
H   19.091946   17.601746   95.108536
H   78.682198   43.835846   56.171417
H   55.558586   91.177483   71.578590
H   82.216812   50.958672   98.435188
H   55.671082   26.238451   46.130844
H   59.638973   96.430412   15.482967
H   21.842640   59.123180   35.320751
H   73.268990   70.122162    3.281679
H   45.221718   62.289871   22.492807
H   54.326439   79.704430   80.381104
H   90.047577   43.688343   14.956314
H   87.522820   44.741051   79.020638
H   62.655899   94.908180   86.822266
H   36.723198   91.483009   92.842453
H   34.143837   76.108521   38.787663
H   24.208122   26.014458   66.972595
H   69.481148   73.657120   74.848045
H   95.374458   80.241570   46.653271
H   13.955612   63.360481   95.699188
H   73.703056   12.164827   16.585886
H    2.581066   17.187572   37.548790
H   85.171341   49.938324   43.726028
H   26.864174   58.755974    6.174167
H    9.304756   89.572693   79.548386
H   71.857330   36.424728   69.108681
H   26.443052   96.283539   75.721474
H   81.799980   59.160442   87.469276
H   60.437916   62.283600   12.541591
H    7.061982   49.201504   48.708717
H   70.092300   81.692009   33.970467
H   89.616280   17.509029   60.473778
H   44.207226   30.668320   91.008278
H   80.992165   45.825401   95.084579
H   64.434540   69.572571   85.965385
H   71.150436   25.558067   93.267288
H   55.991291   30.839191    5.563485
H    2.775791   43.032700   55.956043
H   81.718208   78.247841   33.642849
H   58.926998   85.331779   16.950506
H   47.820396   99.333336   85.004211
H   33.858932    7.503066   46.243389
H   35.275467    9.780463    9.987127
H   49.226749   89.945404   20.013086
H   97.751205   86.676666   11.921536
H   74.120140   57.893394   33.486713
H   21.192638   47.030811    1.074951
H   76.187790   64.668663   67.799065
H   56.474934   40.791534   41.443718
H   93.940414   67.212494   68.559296
H   18.368511   97.855446   75.222511
H   43.208164   43.886726   99.915146
H   19.450121   54.524883   84.553589
H    0.348008   47.579407   46.743771
H   74.565208   35.252068   26.416950
H   89.663879   45.070255   37.856190
H   99.084122    7.894831   42.500000
H   75.825943   62.298027   75.415108
H   97.678116   60.417625   99.962753
H   38.083710   25.102528   72.925850
H   68.003082   66.756439   38.179695
H   37.887268   73.485497   70.556679
H   42.395103   86.894424   95.814667
H   73.456184    6.352283   31.063530
H   45.866676   65.786316    7.406376
H    7.362069    8.624252    6.252903
H   30.431709   23.038521    6.937200
H   33.746414    0.828928   79.976730
H   75.736839   69.749771   77.026100
H   76.696732   32.911850   83.645203
H   19.733316   69.954102   92.446930
H   81.994652   95.343140    9.246017
H   10.342886    5.165566   79.501884
H   19.451277    0.171276   48.677559
H   33.128475   70.307121   41.126366
H   74.794075   34.926434   35.706387
H   29.912775   90.212364   99.193100
H   67.355270   44.317158   69.041939
H   39.170147   62.362789   57.989075
H   72.987190   40.565166   66.889214
H   83.250397   68.777122   40.995720
H   97.169846   74.905136   43.563885
H   72.213478   73.028214   18.016085
H   96.815910   80.870056   49.930637
H   53.550171   89.532051   60.630608
H   37.599442   73.037575   20.252243
H   49.797474   71.042915   48.027054
H   61.688652   82.709991   33.829437
H   26.941065   52.218910   49.880913
H   47.204208   48.630150   92.122688
H   76.435837   27.836143   81.863556
H    4.498018   11.559555   26.592936
H    4.592160   27.155258   17.557276
H   68.143074   59.840332   60.036602
H   73.471603   80.732407   24.162668
H   80.344002   54.709465   17.424023
H   58.169510   21.585243   39.666832
H   12.557523   20.761272   83.565628
H   23.053457   53.786194   85.467506
H   98.631042   55.860073   75.653679
H   13.133810   65.462715   72.911514
