100
TIME:    0.158, STEP:   158
H    6.637823    7.531940   99.001358
H   96.875130   13.311256   87.967133
H   82.479095   85.271172   21.484688
H   81.503128   26.141050   31.502394
H   93.755859   85.421921   61.421196
H   25.566269    1.041688   94.392479
H   44.689266   72.007439    2.808322
H    7.467810    2.271720   93.686623
H   49.744057   71.102310   90.141396
H   70.522713   18.655548   13.876001
H   85.558258   72.600021   24.530441
H   49.811306   31.610237   81.682671
H   33.212288   52.148209    9.425351
H   47.258778    4.590117   69.264870
H   82.424629   55.908455   43.177883
H   95.170685   97.917000   19.924213
H   11.363264   92.445900   87.740440
H    4.521103   87.016998   94.068649
H   47.724609   84.981537   71.685577
H   88.372475    2.219339   26.967096
H   54.900604   40.488304   52.953125
H   77.497841   44.308479    5.801735
H   83.634499   93.337212   27.830299
H    4.361630   38.576725   95.339890
H   23.931963   73.643013   37.725052
H   45.931538   22.904556   74.361992
H   48.454639   35.909107    3.101620
H   19.209282   63.814083   71.998489
H   14.606795   63.426937   49.703217
H    7.052402   86.929184   95.949577
H   22.317019   36.210976   96.909233
H   75.733612   48.144997   84.637245
H   81.487488   56.922066   12.030843
H   84.777901   59.242920   65.095024
H   76.844490   46.976639   34.349449
H   86.292412   96.897331   20.100676
H   94.953484   98.748878   20.914928
H   57.458160   56.062389   33.590908
H   43.617710   77.135155   26.983047
H   48.311245   97.391365   50.465721
H   24.444279   61.600025   46.061131
H   17.421036   18.947855   10.223308
H   12.602534   64.447418   12.885981
H   69.270157   15.419675   96.180191
H   42.949959   25.657993   69.627991
H   75.933525   66.174370   83.937889
H   37.748402   34.264057   28.973333
H   56.247852   97.008987   78.354095
H   69.646111   19.363934   38.171448
H   29.203550   33.154255   72.613419
H   43.529980   54.390526   55.087246
H   12.811677   49.078087   63.690956
H   12.156773   22.924866   93.693398
H   73.026581    4.624262   38.787922
H   28.181099   72.356598    1.746875
H   93.763931   12.366169   87.248108
H    6.269110   84.987801   71.014534
H   14.294594   61.965446    9.485163
H    2.738990   45.444855   99.353317
H   48.594025   39.932533   59.111259
H   69.667435   71.221909    2.077567
H   93.303406   26.474716   88.205505
H   84.950172   96.378700   22.718719
H   53.889633   42.653961   22.850882
H   38.593102   48.225407   10.275060
H   91.639290   34.418507   55.528057
H   74.891869   53.823627   74.690414
H   69.451607   26.573719   73.755913
H   64.778831   38.433449   50.323849
H   33.587440   56.091721    1.398515
H   17.015409   84.654015   60.252445
H   60.938236   46.281837   68.190681
H   96.689407   10.492100   57.698246
H   26.713257   39.381268   93.818199
H   69.788254   28.868513   13.375276
H   29.393309   17.698492   85.298111
H   81.300659   12.849739   93.828064
H   39.403458   40.389210   23.165638
H   69.127495   53.037655   19.450211
H   91.776840    0.348702    7.309352
H   13.973904   30.915842   89.432159
H   53.178776   45.259415   73.568787
H   27.793232    9.894553   44.948517
H   61.039925   25.681858   48.998634
H   44.637161   39.001633   32.435844
H   47.660252   14.854426   52.756283
H   77.707176   91.865028   31.077236
H   58.498657   92.644295   94.095985
H   58.962105   85.375267   26.908264
H   52.365883    2.786087   29.860010
H   30.488588   81.962646   36.798412
H   89.977028    7.389638   36.535194
H   95.422005   32.365707   31.138376
H   62.500038   22.816069   37.471867
H   53.860111   35.577114   19.717793
H    6.971775   89.492302   59.288033
H   50.060875   76.747734   28.102211
H    7.445429   17.582947   53.507248
H    1.185429   37.531368   31.816898
H   49.053844   74.644798   82.468246
