100
TIME:    0.685, STEP:   685
H   70.998695   59.203316   98.518875
H   82.215691   41.884991   21.209745
H   91.533691   23.185463   15.296844
H   81.591583    4.427309    2.615355
H   89.035568   27.663292   47.131660
H   17.394215    0.468113   46.583706
H   17.070053    7.591295   44.020664
H   66.046646   47.862583   45.300072
H   36.789391   20.433563   56.969841
H   56.120598   26.220478   34.514206
H   36.537994   93.805145   73.766182
H   29.695789   58.026176   44.169624
H   99.690201   20.264130   57.044807
H   21.164494    2.965255    9.368160
H   88.833611    8.837390   17.844633
H   73.981644   51.822735   76.179184
H   68.993568   27.297134   35.722343
H   15.782208   61.389114   75.798630
H   55.930840    7.088426   99.452469
H   74.107063   91.170074   62.920113
H   23.627670   88.023285   38.651527
H   28.030201   45.004059   60.930088
H   76.598289   89.051155   12.750916
H   55.397614   44.897251   56.201683
H    5.084955   31.848858   41.616768
H   43.518078    7.199314   24.968477
H    3.010048   14.001922   13.559202
H   74.742088   88.412674   89.416122
H   26.065887   11.240735   24.791599
H   27.258829   73.886063   37.843716
H   43.047703   83.470177   55.206627
H    9.008488   33.586075   35.850182
H   18.607944   18.364351   59.507164
H    7.044801   10.946486   42.892769
H   63.745079    7.139409   66.438889
H   32.113586   38.295910   18.287344
H   45.499203   79.449562   62.440624
H   35.678078   46.416752   70.779015
H   19.924805   65.885262   76.473236
H   98.674431   48.056187   91.928398
H   88.429657   79.684563   58.481045
H   70.057274   42.601578   34.982487
H   17.141142   67.607681   50.950790
H   35.616974   24.251123   47.708138
H   97.237099    4.865529   14.724722
H   69.202888   76.081352   86.004524
H   43.313038   62.694363   33.476509
H   56.275997    2.436098   10.961806
H   85.053398   75.717026   17.148676
H   40.256428   41.175533   35.754807
H   43.492359    3.510876   60.639408
H   38.421974    0.175656   29.092911
H   23.088678   25.980591   63.087776
H   60.826756   96.026390   62.043598
H   86.226868   18.555223    6.218761
H   94.423325   11.812042   69.307785
H   39.677322   69.781548   21.136772
H   75.052185   12.197334   95.910599
H   44.300880   67.711441   58.896618
H   13.816442   80.439407   44.126549
H    2.910602   46.714615   60.986565
H   74.599152   21.569473   64.362808
H   20.695721   60.441765   86.564308
H   90.076973   45.520714    8.541243
H   59.512756    6.133815   59.354744
H   59.264687    8.219685   86.688408
H   32.610283   72.043152    0.133353
H   33.048271   56.713181   98.949562
H   91.041985    0.566600   17.269749
H   44.262375   82.597313    0.290312
H    0.279503   48.795788   53.931919
H   17.485956   28.791832    6.773645
H   62.328583   84.423561   44.184704
H   15.113641    6.030931   62.497017
H   95.199020   29.618372   53.325733
H   41.853428   51.475464   49.837223
H   29.148186   67.174187    3.154989
H   64.162872    5.929840   52.271206
H   94.385475   51.495945   25.326450
H   65.931839   71.648979   61.907806
H   24.286777   36.368298   20.929398
H   92.719048   48.701126   29.498978
H   61.137074   18.690512   95.142822
H   97.290802   70.777931    0.862922
H   18.975634    6.035880   81.349449
H   35.526829   34.215275   89.351631
H   12.904333   53.547844   56.206554
H   66.982315   50.451164   88.619804
H   69.898384   56.032265   22.596073
H    5.772984   81.098969   48.700741
H   52.055576   10.420233   47.927685
H   28.970018   47.024361   46.574860
H   29.234303   48.154961   71.908226
H   13.435127   54.784004   73.003731
H   44.749226   88.371246   31.826103
H   50.499786   68.681206   32.067955
H    8.230562    6.991171   97.793808
H    9.380242   22.070038   45.075859
H   76.080284   39.803059   87.672523
H   81.782272   61.110294   31.711031
