100
TIME:    4.860, STEP:  4860
H   88.660805   76.334602   94.696548
H   66.253914   68.221466   84.544556
H   63.293648   23.551594   66.298286
H   82.292343   32.419243   73.770882
H   51.640472   62.307938   33.929153
H   52.659222   95.942894   60.049068
H   98.258400   89.507797   70.511337
H   37.899879    9.054301   61.965839
H   34.159859   19.024338   94.166832
H   42.028618   86.165764   98.000427
H   48.189667   61.795185   71.608994
H   70.349815   67.297356   46.988625
H   33.940384   67.696419   42.107910
H   14.442845   90.095985   27.088152
H   39.616402   35.912292   17.156075
H    6.113341   86.655594   29.618969
H   33.294930    3.422893   15.813322
H    4.995833   58.345333   31.052790
H   20.964546   82.236481   19.406359
H   61.577583    2.608438   47.224007
H   75.877434   72.389557   25.335861
H   28.313278   50.535706    5.404372
H   20.856026   55.096153   93.299149
H   67.494827   94.967987   46.127510
H   55.762360    0.736328   72.432045
H   24.391699   82.983215   33.405994
H   42.995781   40.452785   96.395668
H   22.469421   83.288086   27.417566
H   16.847466   90.029442   27.436810
H   87.347702   70.554619   69.744698
H    7.325893   57.860371   24.871208
H   72.620613   18.236603   49.349495
H   12.688749   12.901747   35.624138
H   83.447754   28.332642   67.007103
H   59.964981   91.541245   20.668732
H   95.109482   66.084709    4.147708
H   45.936005   26.552639   91.414413
H   63.117146   70.014961   65.396919
H   39.930950   75.526482   73.342255
H    5.436125   57.207077   20.408648
H    3.105625   22.942305   56.845196
H   94.831352   29.976782   31.126329
H   53.102863   92.643921   52.516083
H   69.015091   94.217773   55.920601
H   35.086887   40.140175   71.993797
H   15.386959   55.613880    2.904271
H   79.703415   89.140709   72.118065
H   56.498966   45.426392   69.287193
H    7.094911   29.944515   50.607819
H   27.806454    4.703657   43.748894
H   43.173832    0.441435    4.659028
H   41.318794   12.767328   55.013054
H    9.682363   50.188660   20.607359
H   64.141930   27.908394   46.274254
H   53.834717   84.509529   41.684238
H   99.647171    7.421474   27.180939
H    4.355669   49.313560   18.214027
H   64.169815   17.920565   88.372177
H   73.573906   44.116364   38.378166
H   38.308636    1.342892   25.380623
H   66.273193   52.558422   35.471886
H   26.424330   82.705887   75.455627
H    4.005292   75.645309    0.205661
H   76.767738   68.237640   95.188873
H   25.223452   72.684723   48.159931
H    2.788534    0.668179   33.544456
H   97.641144   16.385952    1.702311
H   44.652397   95.485245   98.538704
H   99.122574    0.577731   55.423027
H   28.850252   92.585938   91.499359
H   67.705559   64.725616    3.847591
H   73.237213   90.230865   12.447810
H   90.109863   77.910255   37.138481
H   23.221279   41.829258   14.388931
H   96.492073   35.568447   69.818939
H   40.552345   19.052729   68.912033
H    8.211088    5.313435   77.000160
H   60.311962   32.936596   82.839607
H   94.568459   39.243374   71.908592
H   61.181610   44.267979    2.227966
H    5.974657   79.560593   70.459785
H    5.976314   75.967056   80.387108
H   25.280298   88.395691   92.785309
H   84.509857   28.040030   19.531441
H   15.687316   44.889641   76.629951
H   39.439426   87.570473   79.276291
H   91.743126   49.991333   55.287109
H   34.183975   16.191374   45.201424
H   56.542587   23.575033   88.442268
H   36.649235    9.320747   97.951660
H   22.913933   35.857952   36.096111
H   37.889683   60.997665   26.131216
H   96.989052   73.345589   94.835800
H   16.964813    8.027165   54.502544
H   72.564308   14.399940   27.763187
H   95.337631    3.816083   16.423882
H   76.838524   46.586010   57.685959
H   24.704840   57.617676   78.264595
H   77.193970   57.799847   37.961334
H   41.083805   53.916340   29.560953
