100
TIME:    0.513, STEP:   513
H   82.630531   74.976631   98.676346
H   87.000175   32.558788   10.360185
H   88.578491   10.811408   17.316406
H   81.562714   11.514147   12.043504
H   90.576157   13.876733   51.795418
H   20.061375    0.655313   29.549406
H   26.084595   95.977089   30.570040
H   79.565506   32.982914   61.093071
H   41.017479   36.970612   67.796806
H   60.821098   23.751469   27.778399
H   52.537018   86.884308   90.334724
H   36.261005   49.404655   56.412971
H   10.630944   30.670319   74.140343
H   29.681034    3.495570   96.278801
H   86.741875   24.200472   26.112501
H   80.897232   66.867500   90.456528
H   82.822121   15.922501   20.062384
H   12.106908   69.753433   81.761520
H   53.252525   99.872513   90.390030
H   78.762947   94.776154   51.185921
H   33.834396    5.145963   43.319221
H   11.537681   44.777039   75.575142
H   78.894737   90.450020   17.672314
H   71.378265   42.834385   68.975983
H   11.236174   45.489758   40.346817
H   44.306744   12.324027   41.089828
H   17.841825   21.151840   10.146025
H   89.255638   80.384293   83.731430
H   22.325958   95.635643   32.921753
H   20.664087   78.143021   24.170383
H   36.281712   68.045921   68.817345
H   98.148621   38.337753   51.773094
H    6.492285   30.948229   44.012047
H   99.777214   26.709198   50.139046
H   68.020409   20.141464   55.965469
H   17.158466   24.784575   18.879171
H   29.002716   85.748390   48.887646
H   42.786568   49.564854   58.641224
H   27.657272   69.556953   92.957794
H   14.874920   64.158867   78.396416
H    0.184826   73.782036   54.427486
H   85.515648   34.881577   26.901617
H   15.659680   66.576248   38.527664
H   46.600555   21.368753   30.890308
H   12.156887   11.651532    0.005798
H   71.399605   72.847954   85.330025
H   41.496876   53.415401   32.006783
H   56.266811    0.665153    0.319501
H   80.024834   89.962875   24.009806
H   36.649036   38.557583   47.784256
H   43.505482   20.116816   58.825871
H   30.063055   16.136044   40.384872
H   19.520655   24.983276   73.076790
H   64.809189   98.831993   54.453510
H   99.918945    3.476698    4.759205
H   94.208115   11.992805   75.163071
H   28.773788   74.744499    4.777966
H   87.859802   28.440437    0.340806
H   30.736092   60.444168   72.101044
H   25.166206   67.219742   49.018639
H   92.060776   54.712814   74.397522
H   80.703766   23.170425   72.144485
H    9.028913   72.170708   98.364113
H   78.266670   44.585075   13.211561
H   52.685089   19.871380   43.336037
H   69.830971   16.770344   76.518425
H   46.409966   66.096008   91.829391
H   44.929436   46.876511   90.726967
H   82.470329   12.925407   28.057804
H   40.778336   73.946922    0.652003
H    5.741617   60.499798   55.994785
H   31.668161   34.500145   94.180824
H   73.543121   92.932228   48.595196
H   18.899422   16.915709   72.719490
H   86.905563   29.373636   40.287159
H   37.786747   40.451202   61.410007
H   13.531684   82.081413    0.111597
H   56.082001   17.176559   42.771786
H   86.141884   51.999851   23.408588
H   74.367020   81.015862   76.725800
H   20.920841   34.588879   10.649670
H   79.814323   47.577835   43.882500
H   50.254536   15.819932   78.760620
H   85.459503   56.059666   16.573250
H   27.351107   16.794762   98.022972
H   39.485905   27.897190   77.407478
H    1.416827   66.053642   48.004955
H   64.213455   64.221977   90.407097
H   66.329048   65.609108   24.003468
H   20.980061   88.177277   42.551510
H   45.016636    1.132859   44.295361
H   16.243761   34.088142   43.298157
H   18.198887   43.001732   58.601952
H   96.810616   44.350258   61.406307
H   47.722797    3.777423   27.874245
H   36.293304   75.473442   40.951927
H   21.882803   97.120583    7.685756
H    8.748719   20.605560   47.827660
H   84.274010   39.061634    2.080922
H   71.100510   65.528206   48.276962
