100
TIME:    6.169, STEP:  6169
H    0.138499   56.293419   93.498123
H   30.101681   39.153355   67.082008
H   85.803757   17.726486   50.929974
H   82.512054   78.487152    2.018142
H   39.915878   67.229980   98.439224
H   32.355900   94.524757   89.683037
H   29.653381   77.898552   72.876915
H   35.015060   22.299122   41.777088
H    1.982100   93.169098   11.769858
H    6.262831    4.961429   49.259037
H   26.429672   14.465441   45.519966
H   20.386734   32.910542   53.812691
H   50.410172   88.538399   12.038750
H   49.628593   86.061287   26.703617
H   55.534676   18.987335   54.234501
H   53.482010   72.165688   20.960155
H   28.032936   90.002495   34.976753
H   32.988201   94.655685   85.675819
H   41.350468   37.150909   88.369278
H   26.313919   74.805458   36.346794
H   98.199524   42.074245   89.806129
H   53.808380   52.273422   93.930969
H    3.377495   44.450142   55.848358
H   45.869183   10.627413   48.910282
H    8.945962   96.926483   82.099342
H   18.424540   44.288963   10.312695
H   30.118774   86.039200   22.368994
H   12.019828   44.387764   70.689163
H   45.310066    8.792158   65.560181
H   37.539310   38.157188   73.806503
H   58.846222   75.241188   21.307289
H   55.271641   82.068344   28.168800
H    4.892597   17.128942   53.549194
H   38.757256    8.370696   11.861391
H   27.426971   92.589973    0.376611
H    8.898451   68.611259    0.030814
H   71.485695   78.612915   94.558510
H    9.017454   46.058949   57.769619
H   84.676910   47.003960   46.490135
H   82.142288   34.662014   23.398134
H   13.644337   67.854149   87.684669
H   80.324203   65.794876   94.898399
H   64.377716    0.493786   47.067024
H   85.432190   16.189291   83.907799
H   21.541046   88.495071   84.008041
H   98.495049   80.581070    8.223444
H   89.929977   60.329300   84.681557
H   56.568874   58.908676   50.280674
H   45.354668   21.533577   98.389084
H   55.261234   24.627710   52.196030
H   43.077999   74.066269   18.457951
H    4.934820   91.302292   69.079659
H   36.836102   57.778687   44.583317
H   33.831711    6.547568    4.038016
H   49.610222   99.226074   52.819607
H    1.279241    6.044534   82.619476
H   87.339790   11.542895   42.710747
H   66.699127   94.301292   54.656479
H   76.812241   99.423866   37.888100
H   51.927513    1.957022   88.149559
H   48.846149   91.685074   33.412075
H   79.968056   70.521896   16.225388
H   92.873695   86.321327   10.443604
H   66.655075   75.368271   59.654339
H   77.181992   68.137405   70.061073
H   22.374950   35.593712   10.943103
H   92.617691   61.638218   64.901566
H   54.230766   70.348915   61.116474
H   64.366158    6.521324   73.324615
H   55.366005   58.426331   88.742981
H   26.139469   75.662201   88.147194
H   65.303787   46.787949    8.286696
H    4.760462   13.163185    3.572594
H   94.407112   58.981953   36.611931
H   59.601765   37.435993   69.050064
H   71.499260    2.947289   80.833588
H   27.059895   91.858040    0.149774
H   21.811169   47.345047   55.131790
H   57.337368   35.398426   86.509407
H   96.991959   72.964912   89.456383
H   31.590120   93.102798   48.695423
H    4.213513   84.477615   70.904137
H    8.077035   10.286088   17.447411
H   74.566200   40.054100   99.974998
H   51.950325   63.012077   49.736984
H    9.309017   35.651382   70.177261
H   79.168282   54.816231   17.705221
H   55.243492   11.423700   31.614861
H   83.706894   50.691902   77.736336
H   20.915949   55.468189   44.743385
H   76.483543    6.540550   63.739788
H   34.742428   59.446991   51.068451
H   80.898331   12.619100   96.062820
H   43.477184   87.439278   42.765152
H   49.934044   97.147476   57.842960
H    3.455696   52.124237   48.812134
H   72.936211   21.706388   82.404343
H   26.369730   91.701019   55.037308
H   14.835954   63.442432   28.318703
H   22.391863   20.328735    3.460560
