100
TIME:    6.232, STEP:  6232
H   95.878006   50.515984   93.440445
H   28.361961   42.567425   71.054115
H   86.887146   22.258793   50.190250
H   82.522629   75.891632   98.564941
H   39.351593   72.279709   96.730988
H   31.378735   94.456505   95.921898
H   26.351543   82.152321   77.803596
H   30.063385   27.749233   35.992443
H    0.433422   87.111923    7.804120
H    4.541857    5.866076   51.725742
H   20.569565   17.000326   39.451736
H   17.982033   36.068424   49.328209
H   46.389999   84.728752    5.778740
H   46.509163   85.867104   31.498119
H   56.299873   13.359863   51.204952
H   50.948975   66.655495   15.730430
H   22.966866   94.169746   40.711891
H   34.335468   91.590088   83.491737
H   42.331478   39.794014   91.688660
H   24.616737   73.467323   40.636131
H   94.461014   35.802219   88.095970
H   59.848251   52.357056   88.565933
H    2.536264   43.937767   54.045914
H   40.015324   11.381075   44.231136
H    6.692786   91.930588   82.564613
H   18.137350   42.426437    4.388457
H   24.686207   83.420609   23.619169
H    6.704179   47.328392   72.771347
H   46.679924   14.507950   62.582062
H   39.955067   36.597954   78.814896
H   61.325905   80.890770   16.322929
H   59.249516   80.327423   22.336571
H    9.330336   12.519732   59.224731
H   41.419106    2.597177    9.207472
H   25.859009   87.820229    4.209868
H   14.374878   73.545631   99.832771
H   77.528450   76.305786   99.522682
H    6.413643   44.905865   62.215168
H   82.017944   45.631218   40.384895
H   76.208160   28.764069   28.354856
H    9.338898   70.016121   89.168922
H   75.014923   66.041931   98.114922
H   64.919891    0.871714   51.617355
H   81.409134   17.246725   90.067833
H   16.076275   86.009140   89.399033
H   97.681786   81.782700    8.479391
H   90.422165   63.755386   85.286217
H   56.572239   59.557556   54.178761
H   47.196045   16.316101   95.876236
H   56.583508   25.586851   47.790855
H   43.073673   67.984100   19.121971
H    7.996338   85.456604   64.944130
H   38.142994   58.143982   40.924114
H   32.372932    5.519574    6.817866
H   44.594139    4.747150   53.355534
H    1.357708    5.978264   80.474808
H   91.334007    9.724950   48.702553
H   62.007965   88.351784   53.033798
H   81.781219    2.085997   33.051781
H   47.770355    6.799542   86.357689
H   52.820179   88.755020   28.500294
H   77.732063   69.935501   13.374753
H   97.150536   82.022377    6.123505
H   70.980942   75.711456   57.943699
H   79.682343   63.105854   75.927910
H   18.504982   32.461784   14.668275
H   87.563156   63.816051   67.943130
H   49.878944   73.951881   64.128235
H   67.505775    1.994558   69.373657
H   56.642136   61.595268   88.610321
H   24.138756   71.375748   87.391609
H   60.109264   44.697113   12.899272
H    0.652607   10.047119    1.957153
H   93.019951   54.994946   32.868614
H   62.639004   37.525875   73.825821
H   72.988319    6.985065   76.594238
H   32.781826   86.405174    1.266953
H   24.771023   43.225380   58.611229
H   60.358265   35.213375   87.212120
H   93.902328   69.533058   84.028862
H   32.822990   93.754562   52.460850
H    8.941746   84.886169   65.634270
H   12.062119   11.339557   23.447388
H   78.900719   45.445091   94.220634
H   48.882805   59.071213   43.629822
H    7.858897   37.965721   74.552155
H   83.375908   50.235619   20.709295
H   56.256706    6.382383   30.961655
H   85.014267   47.184105   77.221077
H   15.345901   52.876034   46.995239
H   79.061760    9.942337   65.070236
H   39.403790   64.185257   52.268639
H   84.936768   14.509503    0.934706
H   49.565601   91.261421   47.013153
H   48.844887   91.504623   59.290684
H    8.659286   49.636383   45.558121
H   67.935509   25.321611   78.781189
H   26.248125   94.818527   53.772713
H   11.834884   63.714001   23.041626
H   26.304850   18.712063   97.391624
