100
TIME:    9.207, STEP:  9207
H   94.690582   77.695900   90.716751
H   46.200912    3.776766   58.636974
H   38.030758   36.291878   15.264196
H   83.021973   53.322441   35.495369
H   12.696569   10.738758   16.066498
H   85.244019   91.233467   90.545929
H   70.429848   83.038826   10.452572
H   96.234253   85.124405   62.838608
H   27.302238    1.076358   20.538977
H   23.283152   48.583881   68.212013
H   43.842316   36.704544   52.883186
H    4.433922   85.190056   37.564262
H   56.649841    4.701548   10.141510
H   99.206451   76.697334   57.897907
H   92.434212   47.618202    8.137070
H   31.330456    6.451047   68.779358
H   83.734779   90.942665   11.537886
H   97.952194   46.826241   80.365799
H   88.669052   64.600449   48.421185
H   44.461849   10.293024   43.187950
H   17.920280   39.631645    7.350523
H   45.064404   56.306412   35.217163
H   62.815483   19.748037   68.927277
H   63.595837   46.970673   23.281969
H    0.290128   56.000206    4.533596
H    4.194109   54.681137   24.461958
H   68.150002   59.754726   82.648056
H   55.681023   86.191345   71.108696
H   11.368381   84.423241   21.951916
H   54.030006   62.966202   15.318741
H   78.409904   47.664906   80.950562
H   47.092854   98.134109   46.925957
H   18.885292   94.854904   27.236227
H   67.119751   29.955994   83.875603
H   51.818993   62.570900   85.214127
H   72.986328    6.563923   90.481422
H   62.869171   67.354744   33.940815
H   83.449287   90.460228   72.152763
H   56.443295   80.812889   52.085541
H   95.997192   50.255280   62.423386
H    6.018666   72.095200   59.257412
H   24.298203   77.708420   49.993755
H   90.522614   18.718651   66.502831
H   91.449013   67.188576   80.945381
H   58.015984   68.642403   43.980595
H   59.280495   38.520245   20.565783
H   13.673621   25.546751   13.847826
H   56.749569   90.199112   38.254139
H   34.159615   69.925697   77.204071
H   19.038717   70.873314   39.779423
H   42.869396   80.766853   50.485184
H   52.589474    9.397396   69.653786
H   99.844170   75.394043   68.145737
H   63.474327   56.987198   38.094978
H    7.719521   65.463303   78.650040
H    5.063066    2.848853   79.198776
H   79.935333   23.882622   31.649862
H   40.483337    7.399334   76.403587
H   16.415272   27.797705    4.663599
H   51.450878   35.469013    1.741602
H   40.486629   50.402134   96.547585
H   72.143486   42.244614   78.768318
H   99.123398   79.013695    2.118835
H   75.268860   91.917435   77.170746
H   97.763885   25.495525   52.976643
H   35.748207   84.566429   90.574059
H   48.873886   66.669586   11.575790
H   44.375366   44.096016    6.350449
H   15.776743   88.230042   82.785980
H   17.014374   11.089140   82.315720
H   29.661869   68.955437   51.711220
H   15.093415   45.891991   30.915527
H    6.678244   62.892773   25.681644
H   27.527760   66.707619   56.104744
H    5.981942   41.872051   99.382690
H   43.317947   97.654778   76.414352
H    2.974533   28.911091   54.032265
H   64.533638   48.704170   22.917747
H    3.023802   26.474857   20.407045
H   48.005119    7.470030   27.729851
H   91.057823   24.532999   30.273262
H   32.182213    4.183438   16.746649
H    0.236319   61.091831    6.770532
H   83.575661    0.021828   22.500439
H    4.026978   72.966232   55.238235
H   39.392948   47.243141   81.145157
H   82.069557   33.928261   62.568474
H    4.102594   68.322365    0.115768
H   46.756840   81.541481   52.889412
H   52.316936   30.475365   53.343231
H    0.811057   70.580292   27.897118
H   59.523663   87.934097    8.958886
H   75.639999    3.769365   30.996027
H   37.086105   71.750961   47.611416
H   97.405823   25.022511   27.652128
H   54.382050   32.156860   91.895218
H   31.793583   96.049782    7.684889
H   20.505671   42.022511   94.047386
H   70.112816   76.560249   73.855324
H   11.094439   42.367352   10.799934
