100
TIME:    7.172, STEP:  7172
H   32.308670   64.314064   92.579849
H    2.404078   93.503365   30.322395
H    3.050814   89.886757   39.153111
H   82.680405   37.164825   47.041584
H   30.931643   47.624767   71.243011
H   16.798809   93.438133   89.013382
H   77.084793   45.626064   51.312893
H   56.181236    9.071666   49.685188
H   77.326424   96.734726   48.635593
H   78.866798   19.364290   88.530556
H   33.133057   54.823505   48.905792
H   82.105972   83.186035   82.418526
H   86.415016   27.873249   12.373234
H   99.967155   82.969765    3.031512
H   67.717110   29.394432    6.002123
H   13.152691   84.439575   37.702637
H   47.377571   56.341732   26.283808
H   54.437550   45.849426   50.906731
H   56.968777   79.228043   41.210087
H   99.293503   53.505276    4.635707
H   38.680069   42.222420   62.579708
H   49.966965   53.604919    8.516190
H   89.985664   36.292809   27.151651
H   52.676277   22.626192   74.419266
H   73.072578   17.384171   89.506752
H   13.790707   14.670982   15.965409
H   43.629520   44.345955   42.272579
H   27.389500   91.204430    3.839515
H   67.119072   99.792274   18.147757
H   75.999680   13.332977   53.541832
H   98.317696   65.181763   41.953194
H   18.601559   54.354443   35.316078
H   75.543709   43.744347   43.907356
H   81.135597   16.451584   69.606415
H    2.464324   16.648964   61.403313
H   96.087700   47.170837   96.878059
H   67.686295   41.881958   73.590912
H   67.558601   27.701122   28.549583
H   42.340565   25.150240   49.292038
H   87.671120   40.764767    2.312107
H   45.095840    2.273658   11.314068
H   95.796745   69.728149   46.102856
H   73.009491    6.510612   19.515415
H   21.387676   33.024315   81.975456
H   34.538139   48.920383   69.837471
H   85.547386   99.711777   12.298285
H   97.765915   14.875699   94.308128
H   56.625362   69.239258   12.340334
H   74.673347   38.464672   58.381874
H   76.317139   39.895863   82.066231
H   43.009129   77.233078   29.029579
H   53.687969   98.229965    3.239538
H   57.642658   63.594421   86.330360
H   10.607033   90.184677   48.296402
H   69.749557   87.124718   61.351902
H    2.528476    4.989475   48.474991
H   50.924610   82.601265   38.104408
H   92.014084   99.580116   28.821901
H   55.916512   41.809032   60.890511
H   85.740807   79.052216   59.621849
H   12.115595   45.039871   55.209496
H   44.369637   61.186111   70.845154
H   60.968845   17.878521   41.664886
H   35.527897   80.832001   32.419865
H   16.990990   88.028625   63.466145
H   60.760132   85.732048   70.248459
H   12.145342   96.317841   13.326144
H   84.946556   27.712172    9.065673
H   14.352633   34.452148   10.416503
H   75.687218    8.871888   86.630951
H   94.288292    7.418902   76.117805
H   82.666756   13.465747   81.751686
H   39.363815   63.554523   77.859924
H   72.322624   95.503906   77.017883
H    7.954297   38.875568   45.087498
H   95.206032   67.232079   13.345216
H   18.153431    5.045027   17.937761
H   68.933929   81.761238   10.521432
H    5.437846   32.452297   97.697044
H   47.803085   18.326656    3.047044
H   51.218575    3.479989    8.643289
H   79.477394   90.982193   86.994698
H   71.521202   27.059240   12.967728
H   43.571423   25.882904    8.366360
H    3.112745    0.270559   52.507378
H   86.226974   72.495361   39.828751
H   46.156452   81.889641   65.531990
H   71.374504   31.162924   21.215408
H    4.521725   94.847221   69.533089
H   32.237324   14.199429   80.597870
H   17.530537   60.697525   84.921310
H    8.954271   34.881882   70.178673
H   45.192448   42.715527   73.626350
H   40.412514   48.289757   10.395844
H   32.593971    7.304855   80.891632
H   86.299362   12.517735   97.005592
H   93.323021   79.266174   24.720951
H   24.433702   41.329693   34.904152
H   67.055534   67.772636   44.307583
H   84.691643   94.589767    6.838255
