200
TIME:    0.207, STEP:   207
H    8.457119   62.584515   14.775297
H   27.670155   32.396404   88.557510
H   18.829367   67.693748   43.722771
H   16.730124   76.588051   45.362637
H   15.560513   82.892868   54.132961
H   90.692139   53.710667   66.526299
H    2.881129   55.327545   49.012623
H    2.149115   87.461365   26.243690
H   86.088303   88.000954   48.524452
H   12.022869   75.361137   97.374107
H   11.043433   93.889229   91.918839
H   30.641342   41.142025   11.169878
H   10.364230   85.912682   62.644188
H    5.963524   53.067707   40.675625
H   21.215134   71.690552   43.059788
H   30.262276   27.326050   55.034885
H   82.654999    6.172964   17.034250
H   37.345814   81.580635   44.107872
H   63.927456   30.896627   41.998043
H   89.951263   80.157860   38.749966
H   57.689041   75.110924   27.352352
H   90.763695   47.553001   71.846382
H   95.993408   62.781395   49.928024
H    7.909371   87.758530   91.689445
H    1.812111   11.376731   46.587879
H   18.688410   60.871857    8.046461
H   98.256767   58.134602   47.755035
H   93.752960   68.768112    0.644440
H    9.678697   57.532784   38.531597
H   94.540657   19.880318   99.767426
H   13.404576   50.070560   16.154467
H   32.526146   62.732895   92.790665
H   27.920654    8.275453   72.776070
H   97.518730   63.541916   37.713493
H   49.572071   91.164597   34.470104
H   34.139210   50.674366   79.098068
H   85.317307   75.141258   85.707191
H   34.547256   43.901688   16.651186
H   54.291588   47.582298   43.698101
H   90.399223   39.824192   64.985443
H   80.494492    6.765343    0.428939
H   11.696764   43.798878   40.809643
H   77.296036   88.540009   49.102917
H   37.354782   61.631313   17.568100
H   27.649517   75.288322   43.173042
H   41.524181   14.697316   42.328979
H   79.352280   27.828922   95.455421
H   90.919220   65.551109   48.834000
H   85.804146   30.004467   61.142540
H   63.298325   17.652582    7.108570
H   78.993256   70.913803   29.176552
H   22.399611   35.129986   62.832027
H   51.286884   95.366623    7.496486
H   22.897734   81.487305   81.214478
H   78.595718   77.118843   91.840607
H    5.728691   73.163025   77.567627
H    5.524662   16.620583   50.008579
H   67.048141   57.812252    5.899049
H   28.877495   73.839981    6.328343
H   43.866531   96.174477   67.604271
H   50.526394   16.020245   43.200657
H   89.343773   16.346708   48.813278
H   70.538170   24.522850   85.998245
H   23.326479   65.105255    2.930715
H   70.817894   75.587112   16.580177
H   40.034176   15.279067   32.270126
H   87.407814   23.858068   85.153328
H   97.526222   91.374901   86.618210
H   15.348689    5.407300   62.397491
H   45.426926   41.054817   50.984356
H   58.479641   76.021370   72.398636
H   33.067886   24.689243   44.995827
H   76.446426   25.092587    0.600742
H    6.790274    9.690042   59.612000
H   78.743210    0.337387   69.164375
H   52.479645   20.241669   63.093113
H   95.567062   28.721685   72.612358
H   27.777521    5.369026   49.095970
H   11.279671   28.223152   35.669346
H   68.773338   90.850990   95.826630
H   41.967503   30.659782    1.623456
H   25.185446   69.183670   88.877403
H   11.128462   13.304318   91.245255
H   25.750195   60.780510   92.775970
H   40.083355   98.974899   58.717396
H   23.737490   86.928940   28.469776
H   34.376194    2.715344    1.695671
H   75.605919   19.772541   10.197501
H   64.678581   71.968590   77.046234
H   23.609417   84.568008   55.228558
H   42.626171   34.607918   80.901268
H   84.285294   88.245926   97.647781
H   45.692047   17.234278   96.669685
H   61.507645   95.619232   68.198547
H   24.288710   57.372589   66.565369
H   70.638680   26.971485   30.613277
H   78.857948   15.420572   96.907982
H    7.801884   27.925917   48.281124
H   37.765663   70.108604   52.764301
H   66.630646   97.391113   27.242350
H    8.393929   79.513977   67.385872
H   89.345177   76.157310   66.046631
H   22.495337   38.375931   30.041662
H   20.290192   67.878555   88.851906
H   25.382484   27.906406   24.017639
H   86.116669   28.388554   45.435757
H   64.095062   29.687025   56.412811
H   64.945564   33.007343   20.017639
H   71.957916   40.506207   97.536873
H    3.306660   28.520498    5.375754
H   46.760365   96.353546    0.772633
H   84.668892   62.515339   90.135269
H   57.667194   79.891716   94.653168
H   63.335960   20.108786   75.804962
H   64.951500   80.594406   27.929731
H   15.385242    6.762724   77.445671
H   33.931728    7.978036   83.795395
H   40.938541   25.372185   34.638145
H   17.609093   56.474651   85.170624
H   69.911758   46.016232   48.111729
H   40.210152   21.540142   88.601181
H   19.712982   28.261776   47.217464
H   31.440802   23.214352   23.050205
H    4.563511   68.506424   19.310301
H   77.903816    9.769153   93.904556
H   46.513348   61.449455   26.168552
H   96.206902   49.035843   72.329224
H   76.150497   87.311150   34.723866
H   92.061615   53.678192   85.642303
H   66.145699   24.305758   65.939407
H   47.276840   86.363983    2.150238
H   82.966660   85.724075    8.548764
H   92.545509   80.989197   97.129677
H    2.538740   12.156852   49.300861
H    2.795857    1.966804   57.933296
H   63.237007    1.669203   84.167770
H   68.838081   86.480431   53.695862
H   90.936867   65.251167   83.719788
H   45.450668   43.872139   71.557892
H   43.430069   10.672651   96.374435
H   48.983921   64.039116   13.843981
H   58.757477   40.008152   45.477608
H   56.066334   56.153595    0.497308
H   59.225212   27.722281   77.577583
H   38.750782   70.861519   47.989460
H   44.731007   61.407108   31.426655
H   43.950768   96.922310   47.518181
H   43.553528   74.647079   69.014305
H   64.303070   66.169968   98.272514
H    8.409929   88.314453   91.231979
H   77.383400   60.749508   51.593323
H   32.398228    8.022793   49.186474
H   74.642723   33.072514    4.623105
H    9.037539    0.385271   76.768005
H   12.303963   53.007538   60.156139
H   62.522461   43.447079   53.045696
H   58.965832   59.894005   80.365036
H   45.576893   37.189369    8.951010
H   13.892140    1.858675    3.828692
H   64.049637   58.290283   76.974670
H   53.631794   85.750061   84.293304
H   45.153500   23.227316   35.829861
H   63.798870   36.008686   37.245773
H   10.063382   19.210220   72.610718
H   59.270157   20.968615    9.500297
H   11.345136   65.489128   62.482216
H   75.468079   98.100716   51.871864
H   23.603386   29.431133   46.648121
H   93.624557   28.277527   36.934856
H   24.966991   10.708746   90.774963
H   79.995422    5.241373   35.978844
H   47.302956   66.672729   57.356777
H   37.035336   78.872208   91.352554
H   71.630180   75.335342   73.479599
H   72.971649   95.284790    0.783021
H   99.888512   47.482597   23.255085
H   35.756752   51.890278   85.527512
H    1.437532    9.169388   64.458237
H   76.445503   22.146708   69.520805
H   87.870316   54.101112   85.919479
H   82.020302   84.006851   42.486568
H   18.562050   30.065762   68.411446
H   67.154327   90.199997    5.416891
H   50.762367   25.159222   75.976250
H   85.096214   89.765694   78.532791
H   98.569572   35.945312   83.789040
H   30.203011    5.089838   98.534012
H   92.006447   65.826729   24.371866
H    7.574034   61.026245   66.166260
H   49.013477   58.452824   65.286087
H   46.243813   32.116146   79.537117
H   47.923443   84.032394   25.044718
H    3.367465   16.738943   57.050274
H   35.680119   62.213947   32.648232
H   86.027069   55.729324   21.924231
H   75.247574   10.302470   30.018488
H    9.241925   84.659584    2.352937
H   29.868546   98.062042   47.897381
H   12.353373   11.519558   79.492943
H    8.351937   36.110725   98.207268
