100
TIME:    1.950, STEP:  1950
H   85.452057   43.196335   97.360733
H   47.027473   10.470289    1.005705
H   13.273581   14.194926    0.444466
H   81.803909   52.310509   33.276722
H   77.705078   29.058613   12.832514
H   97.778328   99.095512   71.861412
H   50.770031   93.010414   42.945396
H   66.620140   57.300823   29.151390
H    5.693275   98.808731   77.342125
H   21.551516   44.382469   84.049828
H   18.870773   44.704884   51.915112
H   81.414673   21.433855   54.125710
H   19.223232   43.729759   31.315067
H   58.528923   99.065407    5.635090
H    4.218733   95.845673   57.039040
H   23.119900   41.175064   71.174576
H   67.290375   10.953621   50.896606
H   42.815155   99.871956   31.943642
H   75.634605   60.160263   66.094391
H   39.981400   64.400742   49.097694
H   48.560867   62.089634    4.318375
H   49.326603   46.673714   53.216721
H   59.708717   78.762993   76.558121
H   37.865410   60.068913   62.251434
H   59.840569   31.521324   50.949463
H   37.717716   69.503006    6.399137
H   93.927956   61.420010   38.661930
H   68.005692   47.459118   31.228476
H   53.571762   26.011065   64.994713
H   75.765205   42.577621   38.407589
H   92.809212   96.911469   55.106876
H   88.881470   98.637932   18.742775
H    7.712490   25.810680   73.468353
H   60.493462   95.016983   89.601242
H   32.301521   11.515183   43.469208
H   42.099865   37.666683   13.936303
H   66.828522   33.123878   62.117680
H   83.393822   23.263561   60.046307
H   63.057625   38.881248   55.229523
H   79.524818   29.630510   91.456070
H    1.981277   23.092810   88.285690
H   56.366302   99.373482   94.414474
H   28.037329   75.193512   42.323723
H   54.838356   45.453011   71.393967
H   87.507378   54.952023   22.977057
H   52.929852    0.110053   91.088539
H   56.670277   30.932367   44.285835
H   56.343555   15.460443   89.232903
H   22.031202   70.949608   66.689926
H   66.786522   60.429646   47.278400
H   43.395847   81.383415   73.977341
H   99.900017   82.793915   46.048740
H   49.330246   33.315491   89.616753
H   31.535412   75.392159   17.864534
H   85.520630   29.452059   16.953077
H   96.006119   10.482592   26.244202
H   19.873819   33.280769   41.448738
H   80.856049   92.733871   63.328201
H   44.068680   21.160929   61.781914
H   30.338886   77.671783    8.147462
H   82.707962   87.888008   62.357212
H   29.702091    9.793756    7.122053
H    6.499500   74.177803   99.780441
H   76.943054   52.402008   74.199928
H    9.720153    5.100284   77.161407
H   81.553749   45.332710   61.484570
H   31.116884   15.779918   61.208447
H   45.666008   29.060291   59.423878
H   54.091309    9.671753   37.932198
H   69.888489   46.222961   97.626984
H   60.111244   62.722702   38.760258
H   13.181037   86.808258   99.391075
H   79.847778   21.851788   11.747074
H   87.275627   25.979330   87.314262
H   56.187660   31.418318   49.221416
H   71.759941   32.548981   64.717979
H   44.002502   57.534813   25.535597
H   23.594875   23.214540   22.130703
H   55.022812   47.789890   39.434196
H    3.893637    2.752284   52.926918
H   49.042065   49.455303   96.536064
H   87.633682   56.962540   23.719912
H   41.179333   39.804260   15.627605
H   84.312630   79.025612   85.318939
H   57.380798   26.910362   58.721802
H    6.409273   80.682259   77.197121
H   97.390800   61.572037   16.526976
H   87.346313   49.172791   75.470528
H   96.149605   85.599602   12.246054
H   93.931961   29.046967   93.926186
H    3.824609   78.725266   74.642166
H   22.567553   42.164097   70.676537
H   10.400002   86.060776   69.772415
H   35.702824   31.514158   58.296005
H   22.877628   75.060974   60.895439
H   54.983597   18.727961   66.728882
H    7.820806   79.587074   25.043182
H   14.024875   32.840759   24.835617
H   15.819580   45.255978   81.708267
H   60.342941   28.615261    9.872726
