100
TIME:    4.691, STEP:  4691
H    0.089753   91.832802   94.851273
H   70.921425   59.063683   73.889221
H   60.388702   11.393500   68.281334
H   82.263977   39.381828   83.033699
H   53.154190   48.761841   38.511566
H   55.280506   96.125984   43.311787
H    7.115703   78.096893   57.295315
H   51.182945   94.433533   77.482262
H   38.314201   35.272949    4.804552
H   46.647133   83.739174   91.383392
H   63.909637   54.995060   87.888550
H   76.799232   58.826210   59.018425
H   44.724655   77.915947   58.900635
H   22.810257   90.616890   14.226710
H   37.561150   51.008209   25.279736
H   12.908909    1.436931   43.647400
H   46.884865   92.244385    0.428582
H    1.381955   66.568031   36.911572
H   18.332302   75.147537   10.503275
H   66.130943    6.197393   35.717690
H   85.906136   89.213226   29.922787
H   12.111084   50.311356   19.796265
H   23.112419   56.470619   98.134277
H   83.196747   92.942841   58.679504
H   61.806915   14.139305   71.183937
H   25.162096   87.978226   49.297451
H   57.569504   47.478550   93.043312
H   36.728970   75.399734   21.830736
H   13.172519   74.696281   35.425362
H   80.867340   74.737328   56.309486
H    0.674401   42.706432   38.241951
H   61.949810   22.905403   64.994682
H    0.784341   25.266138   20.399282
H   76.307236   43.820526   74.126991
H   64.165741    4.316408   10.378288
H   80.418427   52.848057    4.679411
H   29.727274   32.742172   78.097824
H   70.102776   73.106865   53.471409
H   47.065022   79.208916   89.719803
H   21.354013   73.028175    7.112043
H   14.655205   17.144018   52.863628
H   10.020403   22.392076   23.187693
H   51.647167   91.630478   40.309639
H   79.807098   91.384583   39.396461
H   49.745708   46.807495   57.532246
H   17.567371   52.390461    2.217280
H   78.383102   79.950096   70.496040
H   56.489941   43.685745   58.830421
H    2.155182   43.940601   57.349922
H   24.261982    2.131369   55.568527
H   43.186726   16.757721    2.877444
H   33.105522   28.449263   66.107819
H    6.176811   49.208740   30.422670
H   68.056450   30.666351   38.816551
H   67.290558   69.697273   40.246593
H   99.435715    7.599246   32.934097
H   93.641418   54.189949    2.140501
H   76.754044   33.880928   92.725082
H   60.244789   36.975845   51.353073
H   49.460377   88.353683   30.187386
H   55.612701   60.417118   48.647934
H   32.421867   84.278915   83.101578
H   92.532249   87.177414   11.794518
H   65.163429   67.317032   99.776443
H   18.515516   86.181824   32.421909
H   13.169888    9.069382   23.551855
H   11.200594   10.543483   93.543076
H   56.326332   85.820145   90.459526
H   90.700424   12.720978   66.022675
H   25.426336   84.086426   91.855225
H   73.071907   76.224197    5.874967
H   87.172699   95.839615    0.074368
H    1.128858   86.270515   41.472046
H   26.941296   52.524563   24.429985
H   88.343269   35.327335   57.007778
H   36.556595    8.221395   80.284256
H   92.867203   19.961296   74.011406
H   52.372036   43.987766   73.507164
H   86.463493   39.739780   70.023537
H   69.469666   53.472775   16.787254
H    2.667590   77.812210   60.358883
H   93.296196   74.863358   94.518578
H   14.590151   85.569397   76.691422
H   72.882339   13.577890   34.966461
H   23.916693   55.461166   93.012657
H   43.329449   81.363457   67.540466
H   80.456001   62.279007   47.228561
H   31.463537   29.721354   46.958832
H   53.035507   32.984261   89.824471
H   51.591717   16.274307   91.909683
H   15.997764   26.732723   32.527142
H   25.385206   48.287285   22.911566
H   86.155785   68.273216   81.766769
H    0.630059   97.776093   43.108402
H   75.486015   29.538406   23.880257
H   81.378937   10.489429   25.152901
H   90.253105   36.887386   67.405212
H   24.084654   56.178741   80.969688
H   85.244781   57.071354   52.117302
H   30.587061   58.252483   45.841702
