200
TIME:    0.279, STEP:   279
H   10.669559   62.345562   16.006453
H   28.311893   33.447521   91.480423
H   17.320257   70.845177   47.269157
H   19.157141   77.429604   43.479855
H   14.796070   84.717697   53.097775
H   88.349854   51.756474   64.394951
H    3.924263   55.276459   50.406239
H    3.762595   90.570496   23.687996
H   89.012314   86.921547   46.768013
H    9.488323   74.352592   94.534142
H   13.553054   95.427315   94.194107
H   30.939072   43.063808   14.600565
H   12.131381   88.302208   59.693260
H    2.560234   53.371479   44.145107
H   17.738922   72.244812   42.882633
H   28.163612   24.359467   53.481693
H   86.042084    9.545061   13.538538
H   35.636066   85.041878   42.826042
H   66.323021   28.289984   43.057949
H   90.180328   79.169090   35.958889
H   58.553116   78.705101   24.053707
H   89.160789   50.305077   69.071785
H   93.837341   62.257896   48.200424
H    9.434295   88.414749   91.463791
H    4.941602   14.272521   44.018726
H   18.628809   64.066963    5.668470
H   99.650932   59.579304   50.649933
H   95.405304   71.738266    0.833890
H   12.711198   55.344307   38.109997
H   91.287056   21.809105   97.276825
H   13.310575   53.078617   16.242495
H   31.216850   64.420395   94.563309
H   26.180969    9.824731   73.655525
H   95.135796   63.620468   38.971977
H   46.116871   88.189499   33.922436
H   31.787312   49.032734   79.923691
H   87.383835   73.587242   86.247719
H   30.985804   45.764145   13.413927
H   51.626854   45.004082   45.298534
H   89.708733   39.528111   62.172943
H   80.515915    3.401985    2.818775
H   15.280504   42.289082   38.674725
H   75.999649   86.886017   51.776440
H   37.194382   65.128075   20.143158
H   30.109493   77.485039   45.771309
H   40.510967   12.823529   43.112030
H   80.709091   24.301487   97.034157
H   89.166351   65.550011   46.245621
H   88.588631   27.272167   61.194450
H   60.721756   17.977503    4.062439
H   77.280487   70.002487   26.323128
H   19.647261   36.369244   64.380211
H   53.228443   93.306137    8.438445
H   21.826155   83.006714   82.280701
H   75.548111   75.517586   89.512054
H    4.805702   71.389282   79.925293
H    5.319183   16.893044   49.236240
H   67.834763   59.486019    4.599538
H   27.358223   75.230850    8.069744
H   42.201279   95.770180   66.273277
H   50.293209   14.615505   41.097050
H   90.637413   16.517271   49.365067
H   72.521751   26.014381   83.569168
H   25.070971   65.207977    4.538255
H   71.975304   76.660477   19.524376
H   37.209866   18.076305   33.564316
H   84.718361   22.339346   86.640877
H   97.123024   91.538597   88.043686
H   17.909721    6.380277   61.486176
H   45.012466   42.309731   50.980511
H   58.448055   77.266670   74.324539
H   31.044413   22.796711   44.491829
H   78.731583   26.337337   98.189827
H    9.135923    8.107461   61.707916
H   79.619919    1.502899   65.778938
H   54.299530   17.699707   62.622623
H   95.262741   31.402075   71.593925
H   25.110727    6.680107   46.633934
H   11.827065   31.431023   34.074680
H   67.688438   90.449440   92.412079
H   45.023350   29.442909    0.554727
H   28.351294   67.888931   86.651573
H   10.847555   14.094098   89.138626
H   23.402279   63.134880   95.122650
H   37.519421   99.736252   56.676960
H   25.765978   84.409775   26.970966
H   37.603153    2.865376    1.860732
H   75.007164   17.092838   12.913184
H   66.880791   72.147667   77.308258
H   23.248791   87.795242   54.436443
H   39.607952   35.229469   80.581017
H   83.783768   88.877640   99.218826
H   49.112366   16.422251   94.619087
H   58.279037   93.032501   70.175537
H   26.113127   56.398651   69.564087
H   67.656990   28.581257   27.227978
H   79.834633   12.930246    0.008873
H    5.822559   29.044737   48.962826
H   36.134193   69.387352   53.019459
H   67.882538   98.561157   27.259928
H   11.606262   81.504700   70.776253
H   92.022545   77.246605   65.649475
H   23.987829   35.744705   31.047873
H   23.749924   68.011490   91.711098
H   25.287041   26.960209   26.351959
H   88.967072   24.863453   42.064877
H   67.505768   30.581038   56.077728
H   64.521492   35.771778   17.233566
H   73.787689   39.597363    1.018439
H    5.619552   27.516623    5.728140
H   47.707661   95.727875    0.823290
H   87.559944   64.326111   90.955399
H   56.416676   80.727226   93.087067
H   63.092064   18.556555   73.948273
H   62.548790   83.592575   25.405210
H   12.446880    4.656370   80.693779
H   30.971462    8.991869   84.634750
H   40.573246   28.916100   33.198936
H   20.343452   59.177837   81.612152
H   71.811844   47.453243   50.797611
H   40.961617   22.018597   86.241867
H   16.606323   26.556149   49.335354
H   33.176643   20.177731   25.186085
H    3.502704   65.915298   16.157362
H   75.749397    7.986483   91.523270
H   49.151165   63.419579   24.778370
H   94.417229   49.372025   69.548584
H   74.575607   87.875847   35.331959
H   92.947662   51.071960   84.001495
H   69.635506   23.964495   67.166031
H   50.183273   83.793182    4.901752
H   80.203049   86.438187   10.246701
H   92.310402   84.492188   97.665260
H   99.008232   14.002898   50.187183
H    6.352715    0.664949   54.624763
H   61.319344    1.576797   83.107040
H   68.957283   86.663902   57.280151
H   91.551003   63.003242   82.582153
H   47.332626   44.879036   71.540863
H   43.469070    7.219442   94.373825
H   52.548435   61.921772   16.169724
H   55.442902   42.195805   47.156044
H   53.751789   57.478821   98.068794
H   55.926018   25.115911   78.770699
H   42.135120   68.473640   50.343830
H   47.369099   62.647739   27.978321
H   45.653648   96.607002   47.002647
H   41.587524   71.966965   68.601219
H   66.227875   63.164028   97.556755
H   10.705167   89.100586   88.537468
H   74.845558   61.972286   51.049774
H   35.429081    6.030594   46.930157
H   77.987511   30.380314    2.095446
H   10.940852    2.037932   74.988770
H   15.159035   54.908997   61.458843
H   64.659851   43.625607   55.260815
H   59.719494   62.053093   81.217575
H   46.600544   36.034157   10.637823
H   10.596860    1.587381    1.158654
H   63.242432   55.352539   79.737732
H   54.339039   82.824951   82.378937
H   41.773006   22.854193   35.206112
H   66.898109   32.869617   37.215836
H   12.706212   21.325363   69.530151
H   58.580765   23.411699   10.207747
H   12.585629   63.198380   62.088631
H   74.228271   96.936165   52.635139
H   23.666283   32.706982   49.625416
H   94.602890   28.043381   36.764843
H   28.252728   10.165403   89.964172
H   78.619934    6.097620   35.972801
H   44.815651   63.998653   57.577877
H   38.426479   75.778458   89.326675
H   70.744682   73.609390   75.147324
H   69.625214   94.743164   97.397644
H    2.111480   47.871513   23.324162
H   35.017097   54.139454   88.539413
H    2.075649    9.238052   65.378891
H   74.604195   20.472940   68.678703
H   84.445328   54.873451   86.935165
H   80.705788   86.586990   40.812527
H   20.014305   30.153652   71.039925
H   63.839737   90.125290    6.841921
H   52.330116   25.292568   78.625053
H   86.027306   86.642830   78.236160
H    0.076895   36.552856   84.149391
H   32.709991    3.856522    0.129237
H   88.547401   68.876534   26.891169
H    5.488966   61.347321   66.989136
H   50.322773   58.061161   66.195755
H   49.683357   29.734035   79.022957
H   47.333202   85.989059   24.127634
H    4.966759   18.451849   58.699596
H   34.422184   65.087593   34.099251
H   83.556244   52.513351   21.688711
H   75.423355   10.479144   29.032053
H    9.720517   86.622841    4.783124
H   27.776062   96.631073   45.866833
H   11.393236   11.721020   76.272850
H    7.600972   33.671486   97.206963
