100
TIME:    1.110, STEP:  1110
H   42.257240   20.228554   98.129776
H   70.393562   64.929253   48.018673
H   98.835785   53.761700   10.306648
H   81.662918   86.917442   79.321037
H   85.228882   61.728920   35.607841
H   10.803848    0.005575   88.672600
H   94.795815   36.290363   77.256218
H   32.642487   84.631027    6.276875
H   26.342079   79.571365   30.216143
H   44.505989   32.321312   51.157921
H   97.005539   10.905686   32.828941
H   13.473598   79.329353   13.918139
H   72.654297   94.550682   14.804217
H    0.121321    1.654909   41.712025
H   94.002144   70.874786   97.414902
H   56.893707   14.647556   40.900864
H   34.824181   55.403061   74.418251
H   24.864410   40.721466   61.064743
H   62.548767   24.918871   21.842073
H   62.610489   82.242538   91.906639
H   98.407669   45.713837   27.117294
H   68.781853   45.565010   24.740627
H   70.923927   85.594658    0.590757
H   15.910538   49.994450   24.636017
H   89.884514   98.142952   44.752258
H   41.569340   94.535355   85.132492
H   66.363251   96.335037   21.992926
H   38.882393    8.250426    3.462945
H   35.306992   49.799686    4.702669
H   43.555126   63.367416   71.630486
H   59.765995   21.583265   21.575996
H   35.843143   21.845009   96.505836
H   48.545155   87.269707   97.794518
H   25.002129   71.997871   24.988359
H   53.181038   75.012611   92.320465
H   69.065033   71.680618   16.824980
H   86.262352   63.885597   95.929085
H   18.113495   38.638012    0.772005
H    0.817891   56.812767   35.738792
H   58.643051    8.268368   25.366217
H   59.383926   94.269295   68.495651
H   31.860710   61.677162   54.949757
H   20.801916   70.156281   81.649330
H    8.478716   31.373259   89.263924
H   60.370277   88.096024   51.094994
H   63.766949   84.088326   87.679115
H   47.800648   85.618973   37.108101
H   56.298695    6.811914   37.258419
H   97.478630   40.518692    0.194590
H   49.170040   47.644306    6.030849
H   43.459934   62.480247   65.120529
H   59.076653   60.740177    1.191343
H   31.905016   28.444885   38.402679
H   50.985790   89.093941   80.798172
H   52.393585   55.814121    9.825224
H   94.955093   11.365389   54.839783
H   66.619507   57.518440   61.557686
H   43.405457   72.061821   84.963943
H   77.819862   85.668365   26.267700
H   85.770172   13.105574   32.038536
H   29.720758   26.951622   27.851532
H   59.515076   17.613632   45.131645
H   49.524086   31.460335   57.407814
H   19.260565   47.832611   97.002052
H   76.381065   72.191032   98.932991
H   33.156136   87.091743   11.817348
H   98.510727   86.738129   20.653351
H    3.690402   81.018906   19.267019
H   12.223473   70.028809   90.614815
H   52.871193    3.972206   99.395782
H   86.784218   19.876677   48.834721
H   82.442276   14.686913   37.890549
H   34.618240   63.399334   33.286686
H    5.759860   79.137238   37.237999
H   15.689862   30.223097   85.543144
H   51.901913   78.713890   21.241070
H   67.736656   30.339396   10.675117
H   84.130142   78.141273   75.741989
H   14.757006   50.250828   30.065353
H   45.089096   48.501892   25.293579
H   32.603771   40.765118   46.330379
H   24.606987   51.476700   93.959549
H   88.029961   25.783464   35.621799
H   26.527716    7.145730   62.043800
H   98.281067   79.453339   40.150337
H   25.744228   49.827877   18.865211
H   41.289116   22.646889   76.472137
H   73.823975   16.425190   84.203529
H   78.717964   32.368553   19.118500
H   68.198746   63.609039   63.895061
H   69.448311   33.368877   56.902905
H   60.415714   78.988853   54.671364
H   56.503502   60.888229    4.787220
H   54.514214   80.562981    1.660772
H   37.401737   50.303215   41.592461
H   85.603012   51.898064   10.116062
H   74.495865   31.380903   73.351898
H   10.940692   25.688660   38.276352
H   55.834160   41.635067   52.071041
H    8.176193   50.192822   90.776802
