100
TIME:    1.560, STEP:  1560
H   11.826132   78.961411   97.717789
H   57.876015   89.325768   76.404594
H    6.569781   86.137032    5.022929
H   81.738449   68.378014   54.655430
H   81.198273   97.798409   23.406151
H    3.825562   99.518028   33.237522
H   71.209541   66.677559   12.446892
H   97.273369   23.562038   64.961021
H   15.280220   36.305832    1.889871
H   32.208168   38.782646   68.779747
H   55.147629   29.012287   89.482361
H   96.297943    1.885594   81.886787
H   44.030441   67.325188   70.076927
H   77.839684    0.267559   75.957268
H   99.474709   30.681351   75.785568
H   38.800598   75.287773    3.547584
H   98.645813   85.162277   15.389712
H   34.480881   18.838074   45.464157
H   69.558708   43.798187   45.548512
H   50.487762   72.684433   22.544657
H   71.704025    0.913704   14.903587
H   11.930892   46.158958   86.423866
H   64.915779   81.934837   87.716110
H   74.100609   55.391483   91.214783
H   73.789543   62.451271   48.072189
H   39.505970   81.125168   42.953575
H   27.557884   77.630814   30.922750
H    0.914249   29.255230   18.337278
H   45.091690   90.627625   83.430687
H   60.810528   52.230026    7.404427
H   77.467720   61.937866   85.967529
H   64.256531    9.412837   54.847054
H   80.242386   54.345055   38.334076
H   44.015343   30.757942    6.031386
H   41.995583   40.996193   19.722031
H    8.190434    7.029531   15.276750
H   29.423641   47.406105   31.387091
H   99.514885   30.401699   32.526241
H   80.589218   47.206596   92.608002
H   16.259218   66.142159   60.772770
H   28.632507    9.710662   79.097458
H   91.417267   81.871803   76.091568
H   24.678030   72.854797   14.154113
H   79.742989   38.915916   33.262821
H   21.337444   70.339371   89.603226
H   57.961361   92.671394   89.505592
H   52.552235    9.893079   40.953316
H   56.322727   11.445055   65.101891
H   10.632199    3.250957   82.245651
H   58.607983   54.493595   74.555626
H   43.425602   19.035673   69.865250
H   80.946312   18.982367   71.651718
H   41.239960   31.054138   12.266815
H   40.565945   81.753700    0.655910
H   16.567856   95.262619   13.643831
H   95.518143   10.892462   39.520721
H   95.149628   44.533974    4.356371
H    9.896334   29.565117   73.373367
H   13.311310    4.681832   91.721252
H   56.073673   47.695339   19.239464
H   58.106823    6.025691   92.766289
H   43.543701   13.424566   24.769173
H   80.047104    0.772531   26.536232
H   50.162338   50.280502   84.786629
H   94.240715   36.249355   40.841000
H    5.512075   64.720833   38.424725
H   62.406906    2.297190   42.379711
H   72.605858    6.754748   40.779621
H   34.652603   37.694672   62.393486
H   61.986412   26.606138   98.448212
H   72.495125   89.258034   43.437687
H   45.337681   99.751526   70.838524
H    5.276354   41.141720   21.747608
H   95.856865   50.660439   10.493156
H   37.385704   30.863394   19.656586
H   62.541485    7.553557   90.961571
H    8.592489   91.336655   18.636984
H    5.271967   48.716728    0.591752
H   36.327972   48.932468   35.084068
H   23.020309   23.992643   86.525856
H   41.410000   45.420574   73.226280
H   58.372402   54.415543   56.331375
H   16.503811   33.293945   78.482208
H   57.485126   45.652813   20.941200
H   76.370209   51.306190   96.528046
H   15.386181   66.358376   50.114449
H   71.343590   89.928207   97.929810
H   81.068085   80.397308   79.527473
H   88.056343    7.314252   15.436495
H   28.413189   45.093643   79.983162
H   87.864143   57.665829   66.406082
H   93.711159   12.832968   63.244133
H   85.376945   74.373154   39.601212
H   98.007088    7.857730   32.001831
H   29.621517    9.993690   51.933342
H   22.771225   34.127678   86.872772
H   38.776566   57.205639   47.472229
H   12.592933   29.520142   31.076653
H   34.397087   43.574841   14.377636
H   36.122665   38.633144   47.435738
