200
TIME:    0.370, STEP:   370
H   13.465838   62.043552   17.562496
H   29.122980   34.776016   95.174660
H   15.412938   74.828232   51.751396
H   22.224621   78.493233   41.100227
H   13.829900   87.024078   51.789413
H   85.389465   49.286591   61.701462
H    5.242690   55.211891   52.167614
H    5.801854   94.500092   20.457882
H   92.707939   85.557297   44.548069
H    6.284962   73.077904   90.944740
H   16.724916   97.371284   97.069794
H   31.315369   45.492729   18.936514
H   14.364863   91.322304   55.963615
H   98.258995   53.755413   48.530148
H   13.345429   72.945335   42.658730
H   25.511135   20.610035   51.518631
H   90.322983   13.807041    9.120346
H   33.475136   89.416504   41.205952
H   69.350754   24.995476   44.397552
H   90.469841   77.919395   32.431278
H   59.645210   83.247742   19.884586
H   87.134895   53.783394   65.565002
H   91.112312   61.596252   46.016930
H   11.361775   89.244408   91.178444
H    8.896939   17.932432   40.771603
H   18.553480   68.105560    2.662954
H    1.413182   61.405247   54.308762
H   97.493683   75.492210    1.073335
H   16.543941   52.578316   37.577141
H   87.174866   24.246878   94.128983
H   13.191767   56.880466   16.353752
H   29.562046   66.553207   96.803734
H   23.982201   11.782846   74.767059
H   92.124031   63.719749   40.562561
H   41.749882   84.429306   33.230244
H   28.814774   46.957893   80.967186
H   89.995697   71.623138   86.930885
H   26.484646   48.118084    9.322392
H   48.258926   41.745502   47.321304
H   88.836029   39.153896   58.618256
H   80.542992   99.151062    5.839262
H   19.809954   40.380867   35.976425
H   74.361160   84.795555   55.155476
H   36.991653   69.547829   23.397745
H   33.218697   80.261444   49.055229
H   39.230377   10.455271   44.101719
H   82.423950   19.843201   99.029503
H   86.950920   65.548622   42.974197
H   92.107910   23.818844   61.260059
H   57.465260   18.388166    0.212463
H   75.115738   68.850685   22.716717
H   16.168596   37.935528   66.336678
H   55.682358   90.701912    9.628953
H   20.471798   84.927078   83.628288
H   71.696274   73.493774   86.569023
H    3.639147   69.147469   82.905121
H    5.059481   17.237404   48.260090
H   68.828964   61.601475    2.957101
H   25.438032   76.988754   10.270682
H   40.096584   95.259193   64.591049
H   49.998489   12.840071   38.438324
H   92.272430   16.732843   50.062466
H   75.028778   27.899511   80.499084
H   27.275814   65.337807    6.570007
H   73.438141   78.017090   23.245516
H   33.640251   21.611727   35.200027
H   81.319191   20.419849   88.520973
H   96.613426   91.745491   89.845329
H   21.146605    7.610011   60.334373
H   44.488636   43.895802   50.975651
H   58.408134   78.840591   76.758667
H   28.486877   20.404760   43.854832
H   81.619766   27.910564   95.142654
H   12.100564    6.107213   64.356972
H   80.727982    2.975977   61.500122
H   56.599663   14.486991   62.027977
H   94.878113   34.789787   70.306740
H   21.740196    8.337168   43.522194
H   12.518909   35.485264   32.059200
H   66.317245   89.941925   88.096466
H   48.885601   27.904917   99.203796
H   32.352589   66.252525   83.838371
H   10.492520   15.092292   86.476082
H   20.434774   66.110542   98.088593
H   34.278893    0.698536   54.098076
H   28.329762   81.225830   25.076637
H   41.681671    3.055000    2.069354
H   74.250404   13.705933   16.345505
H   69.664566   72.373657   77.639038
H   22.792999   91.874107   53.435299
H   35.793259   36.015041   80.176254
H   83.149895   89.676056    1.204433
H   53.435268   15.395939   92.027359
H   54.198437   89.763161   72.674232
H   28.418987   55.167702   73.354134
H   63.888466   30.615829   22.949335
H   81.069054    9.782751    3.927995
H    3.320913   30.458801   49.824421
H   34.072197   68.475769   53.341949
H   69.464790    0.039958   27.282145
H   15.666295   84.020752   75.061317
H   95.406441   78.623352   65.147514
H   25.874174   32.419128   32.319569
H   28.122641   68.179504   95.324799
H   25.166410   25.764320   29.302280
H   92.569664   20.408117   37.804459
H   71.816521   31.710970   55.654221
H   63.985500   39.265717   13.714750
H   76.100319   38.448685    5.418751
H    8.542796   26.247835    6.173518
H   48.904938   94.937096    0.887315
H   91.213913   66.614441   91.991951
H   54.836159   81.783218   91.107689
H   62.783806   16.594707   71.601624
H   59.512032   87.381927   22.214497
H    8.733117    1.994189   84.799026
H   27.230015   10.273240   85.695602
H   40.111553   33.395214   31.379936
H   23.799379   62.594364   77.114639
H   74.213341   49.269466   54.192268
H   41.911385   22.623310   83.259956
H   12.679852   24.400425   52.012131
H   35.370552   16.339779   27.885599
H    2.161951   62.640549   12.172314
H   73.026451    5.733344   88.513588
H   52.485073   65.909332   23.021334
H   92.155281   49.796921   66.034164
H   72.585121   88.589561   36.100521
H   94.067528   47.777973   81.927696
H   74.046234   23.533176   68.716347
H   53.856682   80.543976    8.379375
H   76.710152   87.340744   12.392705
H   92.013252   88.919579   98.342178
H   94.546127   16.336109   51.307396
H   10.848216   99.019531   50.443146
H   58.895630    1.460007   81.766396
H   69.107941   86.895790   61.810295
H   92.327202   60.161922   81.144310
H   49.711212   46.151642   71.519341
H   43.518364    2.854970   91.845276
H   57.053585   59.245689   19.109283
H   51.253647   44.960754   49.277401
H   50.826462   59.153759   94.999405
H   51.756203   21.821852   80.278664
H   46.412548   65.455627   53.319492
H   50.703354   64.215714   23.620010
H   47.805901   96.208488   46.351070
H   39.102715   68.579597   68.079124
H   68.660614   59.364609   96.652115
H   13.605934   90.094093   85.132050
H   71.638008   63.517742   50.362789
H   39.259743    3.512671   44.078423
H   82.214951   26.977673   98.900879
H   13.346428    4.126702   72.740013
H   18.767529   57.312229   63.105316
H   67.361275   43.851246   58.060478
H   60.672039   64.782043   82.295090
H   47.894325   34.574097   12.769768
H    6.431975    1.244496   97.783867
H   62.222195   51.639557   83.229935
H   55.232918   79.127937   79.959389
H   37.500439   22.382607   34.417763
H   70.815208   28.902046   37.177998
H   16.046457   23.998669   65.636658
H   57.709450   26.499487   11.101887
H   14.153476   60.302906   61.591183
H   72.661293   95.464302   53.599834
H   23.745777   36.847290   53.388386
H   95.839394   27.747446   36.549965
H   32.405533    9.478679   88.939423
H   76.881470    7.179821   35.965164
H   41.671974   60.618576   57.857323
H   40.184731   71.868301   86.766190
H   69.625221   71.428322   77.255432
H   65.395691   94.058609   93.118828
H    4.921052   48.363060   23.411467
H   34.082256   56.982162   92.346123
H    2.882157    9.324837   66.542496
H   72.276985   18.357485   67.614380
H   80.116524   55.849602   88.218880
H   79.044388   89.848000   38.696724
H   21.849794   30.264736   74.362030
H   59.650135   90.030869    8.642984
H   54.311790   25.461002   81.972847
H   87.204102   82.695877   77.861252
H    1.981939   37.320724   84.604836
H   35.878662    2.297766    2.145604
H   84.175552   72.731148   30.075287
H    2.853672   61.753124   68.029160
H   51.977577   57.566143   67.345474
H   54.030560   26.723312   78.373116
H   46.587204   88.462067   22.968542
H    6.988097   20.616772   60.784157
H   32.832294   68.719345   35.933178
H   80.433395   48.448719   21.391041
H   75.645523   10.702440   27.785309
H   10.325404   89.104179    7.854596
H   25.131395   94.822487   43.300446
H   10.179730   11.975645   72.203011
H    6.651855   30.588478   95.942688
