100
TIME:    5.785, STEP:  5785
H   26.106207   91.508263   93.849686
H   40.706886   18.343786   42.868511
H   79.200241   90.100449   55.438763
H   82.447601   94.307465   23.066952
H   43.355331   36.450684    8.850655
H   38.311954   94.940773   51.654743
H   49.777576   51.969456   42.847614
H   65.196701   89.078140   77.034798
H   11.421593   30.089325   35.941612
H   16.752577   99.447395   34.223881
H   62.148422   99.014801   82.508736
H   35.043961   13.662584   81.146675
H   74.914078   11.759853   50.195000
H   68.642265   87.244881   97.480263
H   50.865562   53.287827   72.693909
H   68.921463    5.751744   52.835663
H   58.911842   64.602104    0.019714
H   24.776289   13.340168   98.988319
H   35.370975   21.040560   68.136856
H   36.658646   82.961708   10.202265
H   20.986610   80.302490    0.229920
H   16.993927   51.763657   26.632065
H    8.504872   47.573189   66.834686
H   81.548409    6.033663   77.429413
H   22.679249   27.380295   79.263405
H   20.175028   55.641502   46.421974
H   63.232948    2.000384   14.748997
H   44.420055   26.463936   57.996368
H   36.960457   73.952515   83.712524
H   22.815617   47.661095   43.279160
H   43.731964   40.807613   51.688148
H   31.025547   92.679672   63.717628
H   77.845329   45.223869   18.955442
H   22.531792   43.561943   28.037661
H   36.972656   21.618082   76.993790
H   75.517868   38.535088    1.238451
H   34.655998   92.675415   64.300697
H   24.888348   53.087269   30.672939
H    0.884076   55.371147   83.703026
H   18.311445   70.611671   93.186058
H   39.887451   54.678490   78.637794
H   12.685803   64.289017   75.292931
H   61.070431   98.190872   19.331005
H    9.952688    9.743979   46.362297
H   54.849125    3.646852   51.148663
H    3.450895   73.256851    6.663386
H   86.929977   39.446487   80.996010
H   56.548367   54.953598   26.520910
H   34.131035   53.335335   13.707414
H   47.206669   18.782751   79.053268
H   43.104366   11.138914   14.410300
H   86.273094   26.934341   94.286690
H   28.870281   55.552124   66.886650
H   42.723312   12.813437   87.093040
H   80.184441   65.575684   49.553005
H    0.800951    6.448464   95.691742
H   62.994209   22.623268    6.189066
H   95.292877   30.566126   64.547104
H   46.526825   83.199257   67.366615
H   77.267914   72.443176   99.071434
H   24.623047    9.543272   63.350552
H   93.596962   74.096115   33.601364
H   66.805336   12.524811   36.775635
H   40.285255   73.276474   70.079391
H   61.941360   98.805374   34.301304
H   45.964195   54.683556   88.237679
H   23.427326   48.363804   46.362503
H   80.756157   48.387974   42.759052
H   45.226566   34.113121   97.406647
H   47.587685   39.110901   89.551575
H   38.333534    1.789199   92.752663
H   96.967850   59.532089   80.172958
H   29.798988   32.156349   13.419266
H    2.861261   83.286034   59.428337
H   41.089069   36.888142   39.940689
H   62.422577   78.337700    6.672932
H   92.195335   25.140383   93.358727
H    3.770152   72.454414   33.923782
H   38.924282   36.526356   82.226204
H   15.823246   93.882881   22.538128
H   24.075472   89.130142   25.744650
H   75.391602   81.987381    3.025331
H   83.789070    3.864714   80.877960
H   48.148033    7.193815   35.046551
H   70.647591   87.029778   86.961594
H   18.147884   21.546024   43.511246
H   53.521797   82.736153   99.394547
H   49.067711   42.152210   35.596306
H   75.738144   72.072762   80.876961
H   54.867619   71.266647   31.017694
H   60.768700   85.804764   55.630413
H    6.330316   30.566206   43.753021
H   56.283096    1.096678   66.367508
H    6.365996   64.142403   16.872576
H   56.572716   31.544621   49.018742
H   71.738861   67.288300   68.646118
H    3.416592   99.670189    4.488479
H   27.110941   72.699066   62.745316
H   33.128876   61.787159   60.483742
H   98.540634   30.182739   40.453518
