100
TIME:    0.411, STEP:   411
H   89.528481   84.330574   98.769730
H   89.837486   27.028484    3.926235
H   86.825989    3.473197   18.514053
H   81.545593   15.716806   17.634607
H   91.489761    5.700983   54.561134
H   21.643063    0.766327   19.448004
H   31.430428   89.090034   22.593508
H   87.582504   24.158924   70.458153
H   43.524834   46.777466   74.216942
H   63.608604   22.287289   23.783907
H   62.024811   82.780090    0.160251
H   40.154331   44.291893   63.673561
H   17.119011   36.841431   84.278709
H   34.731541    3.810060   88.517052
H   85.501427   33.311172   31.015539
H   84.998337   75.788765   98.923325
H   91.022774    9.177078   10.775645
H    9.927369   74.713669   85.297653
H   51.664223   95.593979   85.015793
H   81.523994   96.914642   44.227272
H   39.887222   15.300644   46.087273
H    1.757091   44.642410   84.259834
H   80.256584   91.279579   20.590946
H   80.855164   41.611057   76.550964
H   14.883978   53.579128   39.593521
H   44.774441   15.363086   50.649994
H   26.637411   25.391853    8.121931
H   97.862511   75.623276   80.360275
H   20.108093   86.381310   37.743469
H   16.753252   80.667496   16.061947
H   32.269321   58.898979   76.888817
H   91.708252   41.155609   61.215752
H   99.307434   38.411095   34.823082
H   95.467552   36.056915   54.436256
H   70.555779   27.851852   49.754669
H    8.289731   16.771856   19.230139
H   19.219597   89.483742   40.850414
H   47.002068   51.431751   51.443668
H   32.242825   71.734352    2.733701
H   24.482166   73.707359   70.371635
H    7.155148   70.281700   52.023632
H   94.682823   30.303438   22.109472
H   14.781289   65.964584   31.160416
H   53.114075   19.659441   20.917309
H   21.004612   15.675790   91.277527
H   72.702309   70.930473   84.930031
H   40.419849   47.912762   31.135199
H   56.261364   99.614807   94.008316
H   77.042778   98.410995   28.078615
H   34.509769   37.005077   54.917999
H   43.513264   29.964525   57.750401
H   25.106321   25.600880   47.081268
H   17.404734   24.391846   79.000435
H   67.170242    0.495965   49.952412
H    8.039268   94.535019    3.893660
H   94.080490   12.100002   78.635391
H   22.307739   77.687645   95.076866
H   95.455017   38.072975    2.968201
H   22.691856   56.134506   79.931274
H   31.896843   59.379715   51.919762
H   85.626633   59.455933   82.350708
H   84.323944   24.119827   76.759201
H    2.110148   79.126244    5.361770
H   71.262886   44.030220   15.981169
H   48.636124   28.017948   33.836571
H   76.097023   21.841084   70.487389
H   54.593498   62.569530   86.904953
H   51.975243   41.043137   85.850777
H   77.387138   20.254478   34.455372
H   38.712219   68.817039    0.866493
H    8.980799   67.440163   57.218113
H   40.078167   37.885307   86.713234
H   80.193604   97.978065   51.210720
H   21.144524   23.370474   78.781654
H   81.987350   29.228502   32.554981
H   35.375111   33.913559   68.273422
H    4.270697   90.921745   98.306213
H   51.289856   23.846107   37.138409
H   81.253242   52.298374   22.271252
H   79.369278   86.570641   85.513214
H   18.924763   33.533642    4.553460
H   72.161522   46.911697   52.412331
H   43.800938   14.117429   69.045593
H   78.443268   47.331394   25.889839
H   32.317932   23.175209    7.910617
H   41.833729   24.150555   70.324318
H   94.604469   73.469872   43.141216
H   62.571457   72.388390   91.467003
H   64.212349   71.288399   24.838085
H   29.998211   92.374878   38.904873
H   40.842381   95.624863   42.141308
H    8.696606   26.416948   41.354996
H   11.654629   39.945747   50.711021
H   86.952400   38.162804   54.529369
H   49.486195   12.914204   25.530701
H   27.868530   79.501396   46.220329
H   29.978788   91.266975   13.552004
H    8.374211   19.737091   49.459541
H   89.133080   38.621952   10.624828
H   64.765976   68.147621   58.100937
