100
TIME:    6.221, STEP:  6221
H   96.621902   51.524742   93.450516
H   28.665722   41.971317   70.360573
H   86.697983   21.467438   50.319408
H   82.520782   76.344818   99.167847
H   39.450119   71.398010   97.029251
H   31.549351   94.468422   94.832573
H   26.928055   81.409599   76.943382
H   30.927963   26.797626   37.002460
H    0.703827   88.169525    8.496551
H    4.842344    5.708122   51.295048
H   21.592758   16.557714   40.511269
H   18.401901   35.517048   50.111214
H   47.091934   85.393929    6.871758
H   47.053825   85.901009   30.660984
H   56.166267   14.342438   51.733921
H   51.391251   67.617592   16.643551
H   23.851418   93.442131   39.710518
H   34.100231   92.125351   83.873085
H   42.160191   39.332520   91.109085
H   24.913071   73.700966   39.887199
H   95.113770   36.897335   88.394569
H   58.793671   52.342453   89.502686
H    2.683146   44.027229   54.360626
H   41.037426   11.249483   45.048130
H    7.086198   92.802887   82.483376
H   18.187494   42.751640    5.422843
H   25.634750   83.877823   23.400885
H    7.632308   46.814949   72.407791
H   46.440742   13.509954   63.102051
H   39.533268   36.870201   77.940414
H   60.892944   79.904335   17.193214
H   58.554966   80.631393   23.354897
H    8.555492   13.324514   58.233765
H   40.954338    3.605249    9.670855
H   26.132767   88.653084    3.540594
H   13.418676   72.684074   99.867348
H   76.473366   76.708618   98.655922
H    6.868277   45.107197   61.438961
H   82.482208   45.870903   41.450890
H   77.244278   29.793850   27.489397
H   10.090641   69.638634   88.909767
H   75.941940   65.998795   97.553307
H   64.825226    0.805727   50.822853
H   82.111572   17.062094   88.992271
H   17.030441   86.443192   88.457748
H   97.823784   81.572891    8.434702
H   90.336227   63.157181   85.180641
H   56.571651   59.444260   53.498142
H   46.874535   17.227089   96.314987
H   56.352634   25.419382   48.560013
H   43.074429   69.046066   19.006031
H    7.461782   86.477280   65.666206
H   37.914806   58.080200   41.563023
H   32.627640    5.699065    6.332495
H   45.469963    3.783144   53.261959
H    1.344007    5.989835   80.849274
H   90.636604   10.042369   47.656364
H   62.827057   89.390587   53.317123
H   80.913620    1.621167   33.896217
H   48.496208    5.954025   86.670555
H   52.126301   89.266617   29.357906
H   78.122475   70.037888   13.872481
H   96.403786   82.772987    6.877808
H   70.225632   75.651535   58.242382
H   79.245773   63.984447   74.903542
H   19.180691   33.008629   14.017848
H   88.445694   63.435795   67.412064
H   50.638786   73.322792   63.602375
H   66.957588    2.784943   70.063507
H   56.419319   61.041962   88.633484
H   24.488087   72.124176   87.523537
H   61.016224   45.062180   12.093902
H    1.369852   10.591194    2.239214
H   93.262154   55.691090   33.522209
H   62.108692   37.510181   72.991959
H   72.728325    6.280057   77.334442
H   31.782795   87.357201    1.071866
H   24.254223   43.944687   58.003708
H   59.830807   35.245686   87.089424
H   94.441788   70.132271   84.976524
H   32.607727   93.640762   51.803394
H    8.116182   84.814835   66.554405
H   11.366311   11.155618   22.399773
H   78.143898   44.503807   95.225365
H   49.418404   59.759300   44.696152
H    8.112087   37.561630   73.788284
H   82.641243   51.035408   20.184774
H   56.079796    7.262613   31.075706
H   84.785995   47.796577   77.311043
H   16.318460   53.328632   46.602058
H   78.611595    9.348370   64.837936
H   38.589901   63.357941   52.059082
H   84.231644   14.179433    0.084061
H   48.502544   90.594063   46.271439
H   49.035057   92.489883   59.037907
H    7.750728   50.070770   46.126282
H   68.808647   24.690382   79.413803
H   26.269358   94.274200   53.993515
H   12.358880   63.666584   23.963020
H   25.621630   18.994339   98.451241
