200
TIME:    0.103, STEP:   103
H    5.261415   62.929668   12.996962
H   26.743198   30.877977   84.335526
H   21.009192   63.141685   38.600212
H   13.224510   75.372475   48.082211
H   16.664766   80.257004   55.628231
H   94.075439   56.533390   69.604912
H    1.374379   55.401337   46.999622
H   99.818542   82.970398   29.935249
H   81.864731   89.560097   51.061531
H   15.683880   76.817924    1.476185
H    7.418426   91.667549   88.632339
H   30.211288   38.366116    6.214459
H    7.811679   82.461143   66.906639
H   10.879387   52.628925   35.664150
H   26.236328   70.889954   43.315678
H   33.293678   31.611115   57.278385
H   77.762543    1.302165   22.083612
H   39.815449   76.581062   45.959404
H   60.467190   34.661640   40.467068
H   89.620392   81.586082   42.781521
H   56.440933   69.919334   32.117062
H   93.079002   43.577782   75.854134
H   99.107727   63.537560   52.423447
H    5.725920   86.841591   92.020538
H   97.291763    7.193923   50.298878
H   18.774500   56.256714   11.481337
H   96.242973   56.047810   43.573517
H   91.366241   64.477890    0.370791
H    5.298448   60.693916   39.140575
H   99.240303   17.094292    3.364826
H   13.540357   45.725590   16.027315
H   34.417351   60.295395   90.230179
H   30.433533    6.037606   71.505745
H    0.960861   63.428452   35.895683
H   54.562916   95.461960   35.261181
H   37.536396   53.045612   77.905502
H   82.332321   77.385948   84.926430
H   39.691635   41.211472   21.327227
H   58.140648   51.306389   41.386364
H   91.396599   40.251865   69.047943
H   80.463615   11.623795   96.976646
H    6.520264   45.979694   43.893414
H   79.168594   90.929108   45.241161
H   37.586472   56.580563   13.848573
H   24.096218   72.115288   39.419991
H   42.987713   17.403948   41.197906
H   77.392441   32.924107   93.175026
H   93.451141   65.552696   52.572769
H   81.782112   33.951122   61.067558
H   67.019714   17.183252   11.508576
H   81.467255   72.230148   33.298164
H   26.375227   33.339947   60.595669
H   48.482410   98.342880    6.135856
H   24.445570   79.292603   79.674377
H   82.997818   79.431770   95.204071
H    7.061897   75.725098   74.162109
H    5.821464   16.227028   51.124180
H   65.911911   55.394588    7.776121
H   31.071999   71.830948    3.812985
H   46.271896   96.758461   69.526817
H   50.863216   18.049313   46.239201
H   87.475182   16.100340   48.016251
H   67.672997   22.368416   89.506912
H   20.806658   64.956879    0.608711
H   69.146080   74.036697   12.327361
H   44.113735   11.238685   30.400742
H   91.292580   26.051779   83.004646
H   98.108620   91.138451   84.559189
H   11.649493    4.001889   63.713837
H   46.025589   39.242165   50.989910
H   58.525265   74.222603   69.616776
H   35.990585   27.422901   45.723824
H   73.145645   23.294613    4.083027
H    3.402109   11.975991   56.584564
H   77.476852   98.653709   74.054451
H   49.850922   23.913391   63.772709
H   96.006638   24.850012   74.083427
H   31.629557    3.475236   52.652245
H   10.488991   23.589561   37.972752
H   70.340416   91.431007    0.758775
H   37.553501   32.417442    3.167177
H   20.612555   71.053848   92.092491
H   11.534216   12.163526   94.288162
H   29.141628   57.379753   89.386322
H   43.786816   97.875168   61.664692
H   20.807451   90.567734   30.634724
H   29.715033    2.498631    1.457249
H   76.470787   23.643223    6.274870
H   61.497303   71.709923   76.667755
H   24.130322   79.906448   56.372723
H   46.985626   33.710121   81.363853
H   85.009720   87.333450   95.378494
H   40.751587   18.407206   99.631660
H   66.171371   99.355621   65.342896
H   21.653440   58.779388   62.233887
H   74.945564   24.646259   35.503014
H   77.447182   19.017710   92.428917
H   10.660908   26.309843   47.296444
H   40.122231   71.150414   52.395741
H   64.822357   95.701050   27.216959
H    3.753847   76.638489   62.488529
H   85.477867   74.583885   66.620300
H   20.339514   42.176590   28.588247
H   15.292801   67.686539   84.721962
H   25.520348   29.273136   20.645844
H   81.999420   33.480423   50.304806
H   59.168491   28.395674   56.896820
H   65.558113   29.014271   24.039078
H   69.314911   41.818981   92.507942
H   99.965836   29.970541    4.866751
H   45.392048   97.257294    0.699461
H   80.492928   59.899708   88.950638
H   59.473499   78.684868   96.915314
H   63.688255   22.350897   78.486847
H   68.422081   76.263718   31.576262
H   19.629459    9.805235   72.753960
H   38.207668    6.513563   82.582993
H   41.466190   20.253197   36.717003
H   13.659463   52.570049   90.310638
H   67.167191   43.940548   44.232121
H   39.124702   20.849041   92.009079
H   24.200378   30.725460   44.158291
H   28.933477   27.600582   19.965046
H    6.095776   72.249161   23.864546
H   81.015663   12.343829   97.344292
H   42.703167   58.603722   28.176594
H   98.791985   48.550247   76.345703
H   78.425339   86.495476   33.845509
H   90.781769   57.442749   88.012360
H   61.104866   24.798693   64.167618
H   43.078659   90.077362   98.175819
H   86.958542   84.692581    6.096227
H   92.885109   75.929321   96.356056
H    7.638388    9.490340   48.020618
H   97.658195    3.847272   62.712288
H   66.006966    1.802677   85.699936
H   68.665901   86.215416   48.518555
H   90.049782   68.497993   85.363037
H   42.732285   42.417732   71.582489
H   43.373734   15.660620   99.264206
H   43.835178   67.097893   10.484583
H   63.545197   36.848209   43.053200
H   59.409565   54.239380    4.005103
H   63.990715   31.487036   75.854195
H   33.862293   74.310677   44.588703
H   40.920429   59.615086   36.407581
H   41.491051   97.377754   48.262840
H   46.393311   78.518356   69.610985
H   61.522800   70.511765   99.306389
H    5.075354   87.148476   95.118942
H   81.049171   58.983273   52.378448
H   28.020508   10.900463   52.445599
H   69.811363   36.961246    8.274151
H    6.288311   97.997810   79.338013
H    8.179970   50.260986   58.274456
H   59.435120   43.189205   49.846081
H   57.877209   56.775322   79.133591
H   44.098286   38.858009    6.514472
H   18.652044    2.250543    7.685438
H   65.215225   62.533691   72.983582
H   52.610218   89.975220   87.058502
H   50.036434   23.766272   36.730831
H   59.322186   40.542896   37.289017
H    6.245961   16.155014   77.060425
H   60.265945   17.439714    8.478423
H    9.553311   68.797844   63.050728
H   77.258911   99.782845   50.769356
H   23.512535   24.699352   42.347584
H   92.211411   28.615738   37.180431
H   20.220928   11.493574   91.946106
H   81.982239    4.004571   35.987572
H   50.895729   70.535278   57.037411
H   35.025906   83.340958   94.278824
H   72.909233   77.828384   71.070663
H   77.805389   96.067139    5.672747
H   96.677391   46.920830   23.155308
H   36.825142   48.641468   81.176987
H    0.515804    9.070206   63.128399
H   79.105171   24.564371   70.737175
H   92.817520   52.985512   84.452377
H   83.919044   80.279984   44.904629
H   16.464348   29.938808   64.614754
H   71.942047   90.307907    3.358522
H   48.497841   24.966610   72.150200
H   83.751305   94.276497   78.961258
H   96.392326   35.067749   83.268532
H   26.581871    6.871298   96.229813
H   97.002846   61.421684   20.732874
H   10.585798   60.562469   64.977661
H   47.122272   59.018559   63.972126
H   41.275581   35.556973   80.279793
H   48.776012   81.206100   26.369394
H    1.057384   14.264745   54.667919
H   37.497135   58.062977   30.552177
H   89.596039   60.374619   22.264425
H   74.993668   10.047275   31.443338
H    8.550626   81.823769   98.842667
H   32.891079    0.128978   50.830395
H   13.740236   11.228558   84.144188
H    9.436692   39.634071   99.652153
