100
TIME:    2.241, STEP:  2241
H   65.772614   16.510086   97.094315
H   38.932793   26.247812   19.361502
H   18.275587   35.130035   97.029655
H   81.852753   40.321678   17.325939
H   75.098618   52.383549    4.942642
H   93.266975   98.780251    0.679042
H   35.519794   12.659952   65.701973
H   43.748116   82.476776    2.432121
H   98.539879   70.830353   59.025249
H   13.600035   48.560799   95.443657
H   91.802673   56.413975   23.885347
H   70.309464   36.020264   33.411674
H    0.713054   26.123940    2.392229
H   44.120125   98.168465   27.781124
H    7.758491   69.852112   43.049850
H   11.418579   15.723207   47.019302
H   43.894394   30.197914   77.390823
H   49.033806   85.720695   21.854153
H   80.168159   72.367371   81.426773
H   32.142036   58.221912   68.910347
H   31.292511   33.118847   96.419693
H   77.227203   47.058945   28.436401
H   55.823448   76.396309   68.232544
H   10.828377   63.558994   40.638237
H   49.432487    8.442825   53.096352
H   36.383404   60.831898   79.122673
H   68.835777   49.322392   44.436550
H   43.452652   61.042019   40.847462
H   59.899200   52.412880   51.238640
H   86.923698   35.375443   61.541592
H    4.256830   23.008112   32.081661
H    7.255326   90.596535   91.803490
H   28.210285    4.520470   99.683929
H   72.788673   68.348495   77.341553
H   25.067196   89.517609   61.188255
H   67.400742   60.527607   12.936124
H   94.740295   22.466146   85.047424
H   71.365028   17.937412   80.582298
H   50.480858   32.587708   27.142397
H   52.115765    2.387836   14.350996
H   82.093361   33.077831   95.141525
H   30.212891   12.434180    8.085730
H   30.543882   76.938553   63.341919
H   36.255669   50.330688   99.847458
H   62.264385   43.471607   47.879738
H   49.175571    5.660419   92.269661
H   59.237835   46.711273   46.967957
H   56.359097   18.456541    7.238270
H   30.536612   46.849201   55.081253
H   72.887505   64.858421   26.926250
H   43.373646   53.289589   77.045593
H   14.041300   55.791729   26.944317
H   55.366844   35.002808   72.716942
H   24.797245   70.645470   30.704794
H   62.355385   54.963734   19.421888
H   96.370224   10.176765   16.337875
H   38.321079   24.884148   69.125175
H   59.187347   65.252808   55.832962
H   67.018700   33.457119   39.440506
H   11.136635    0.037613   99.871223
H    1.064228   74.353951   39.669460
H   19.375046    7.084614   93.955490
H   26.238045   54.334068   79.816818
H   96.924438   53.984978   66.300621
H   21.270504   81.859406    4.260777
H   63.677071   30.866188   78.690758
H    7.768637   25.840532   75.257584
H   25.564735   45.702759   73.335358
H   68.594872   88.762367   19.680313
H   75.785217   60.860435   97.014221
H   50.870964   42.922325   35.269032
H   89.186523   77.150589   20.696825
H   60.874344    7.458530    4.285137
H   80.872704    7.564016   70.019264
H   70.217796   31.832376   71.280869
H   78.637978   51.200493   45.138363
H   70.424011   32.311646   30.683023
H   37.266582    4.186656   38.202396
H   68.975143   46.936207   42.681236
H   89.622414   86.904617   27.856941
H   54.736759   52.465832   13.928274
H    9.467398   58.862991   99.385963
H   59.591068   44.661957   43.343998
H    4.329950    3.926852   58.739258
H   43.211777    8.707544   30.512527
H   99.711426   91.370079   97.404961
H   16.826056   40.413971   30.402937
H   92.030838   25.874496   72.442238
H    2.188728   69.396919    9.865494
H   68.204819   17.073677    4.329199
H   15.733612   94.439514   80.787552
H   44.100338   64.048149   76.222481
H   29.070385   94.781540   92.284775
H   63.829952   49.166569   77.917076
H   17.845650   48.995087   67.582542
H   79.018982    7.237131   51.698441
H   84.722519   96.287071    8.307407
H   15.093324   35.318451   20.178844
H    1.957495   46.510365   57.331589
H   78.414993   21.141113   81.845245
