100
TIME:    8.961, STEP:  8961
H   11.326467    0.255400   90.941971
H   52.995041   90.447052   43.124966
H   33.802258   18.594070   18.151821
H   82.980682   63.457329   48.980400
H   14.900908   91.020920   22.735817
H   89.057739   91.499977   66.184662
H   83.323677   66.428871   91.215034
H   15.569366   63.841152   85.424492
H   33.349388   24.728882   36.024014
H   30.003145   45.051685   58.580116
H   66.724640   26.806629   76.580055
H   13.823708   72.859276   55.075096
H   72.336395   19.590805   34.588074
H   11.386642   77.455574   39.176517
H   89.446297   69.592140   19.966736
H   41.221420   27.967247   89.199280
H    3.516638   74.670540   89.143532
H   92.689560   58.796669   88.894119
H   84.836563   54.279865   35.461666
H   51.088940   15.517183   26.439112
H   32.518272   64.122406   14.027735
H   21.480143   55.979843   56.166351
H   66.099937   21.747801   75.965393
H   86.451920   44.027802   41.552471
H    9.088204   75.508759    2.717679
H    5.354460   61.933212   47.612362
H   89.361946   69.980484   77.768295
H   76.438019   74.708893   62.978027
H    6.019030   62.103970   33.579948
H   44.597054   69.054642   95.762817
H   68.729210   25.606239    0.413294
H   31.560200    4.930803   69.699425
H    1.556902   12.853134    5.074605
H   56.725861   52.500488   94.239464
H   57.941216   81.196571   70.248276
H   51.601719   87.296036   91.254677
H   39.275528   76.363533   14.556941
H   93.617958   94.960869   54.793068
H   66.827293   86.173119   75.925049
H   19.167753   73.285118   43.067627
H   22.830408   63.653290   53.461758
H   45.029678   76.743729   37.435879
H   88.405548   17.242523   48.734608
H    7.155115   63.059120   56.892467
H   79.355026   78.345619   22.928587
H   62.454216   33.828167   19.566370
H   11.750339   12.167761   11.485365
H   56.734554   87.665390   23.033039
H   26.969475   90.300575   87.016144
H   13.875362   67.127159   56.980579
H   42.886288    4.516453   47.891403
H   40.634060   32.224361   85.802040
H   94.742943   73.967651   82.432175
H   69.172211   61.001740   27.239799
H   27.307064   43.904274   76.559250
H    4.756674    3.107621   87.573196
H   64.338867   30.980797    8.253131
H   58.801208   30.631681   82.739769
H   97.013313   17.402876   23.549212
H   67.684013   16.559940    8.738426
H   24.967539   61.841419   15.726589
H   80.874504   44.534348   89.897926
H   82.423355   95.800072   18.987793
H   58.376759   90.577377   83.848511
H   88.000610   45.144070   30.067965
H   50.860451   96.795860   76.028618
H   68.610641   58.165073   99.698410
H   61.368195   30.027161   94.590225
H    3.515794    5.906013   98.213531
H   12.018249   98.733353   82.837479
H   37.474834   85.693016   54.661598
H   35.350815   54.059959   12.883954
H   22.717896   75.061974   31.989674
H   32.942417   82.277809   70.721504
H   94.132095   41.509823   80.730743
H   37.501648   81.889397   92.968002
H   80.632645   50.203739   49.668633
H   52.977901   64.788612    9.331367
H   91.226433   27.197437   17.661242
H   60.069389   20.871252   48.923027
H   86.241875   21.988016   15.570153
H   13.722706    2.586490   37.326797
H   84.677376   56.977818   83.343452
H   66.650398   78.971291   44.967983
H   16.004913   88.356247   79.085251
H   45.055347   38.206200   64.062241
H   65.639778   51.814461   50.838280
H    0.146557   88.006569    2.666307
H   41.651859   95.238594   54.901375
H   74.066666   40.597115   44.550278
H   90.743706   57.297031   22.702049
H   41.322155   69.432297    4.272253
H   59.870869   96.388756   11.972468
H   13.311548   56.826405   31.024038
H    1.659018   47.058384   22.000051
H   34.063477   41.871338    4.601530
H   51.320122   81.932259   21.833103
H   20.980509   29.851097   98.987206
H   81.831749   75.497963   94.459175
H   95.814301   48.679134   34.498577
