100
TIME:    3.367, STEP:  3367
H   89.626129   13.250202   96.063431
H    7.610545   87.298218   90.389389
H   37.630432   16.139488   83.817162
H   82.041748   93.928947   55.607533
H   65.013138   42.637402   74.411652
H   75.810677   97.560371   12.190969
H   76.504982   88.693336   53.756721
H   55.246735   79.889938   99.046516
H   70.860649   62.570068   88.146294
H   82.830055   64.728493   39.538658
H   87.064896    1.721261   15.423342
H   27.331459   92.461151   53.262093
H   29.087883   57.999222   90.476677
H   88.367104   94.697823   13.469700
H   21.456341   69.273331   88.923653
H   66.144669   17.239105   53.551125
H   53.353065    4.672475   79.899643
H   73.093102   30.963585   82.815613
H   97.710365   19.602419   40.748348
H    1.808281   34.313999   45.573631
H   64.474167   21.021637   65.853989
H   85.177917   48.553726   32.547104
H   40.789726   67.238625   36.017426
H    6.210751   77.063568   57.011814
H    9.161366   19.139053   61.405861
H   31.219744   27.284616   73.581535
H   71.739441    2.513873   66.779884
H   48.443783   13.599869   78.067711
H   84.382690   54.572433   98.013130
H   30.098305    7.506562   51.055206
H   48.568714   23.981207   42.992622
H   78.351692   59.482277   87.564018
H    7.523890   22.136372    1.122904
H   20.365086   65.157295   29.903908
H   97.075836    4.400678   29.755142
H   65.303108   48.981052    9.064668
H    2.738522   81.228500   73.771782
H   24.827858   97.329826   60.040096
H    2.949012    8.056868   18.024904
H   46.059406   96.975586    2.942385
H    5.141624   71.711914   21.670759
H   29.014397   62.973106   60.985626
H   40.242779   83.690842   44.675282
H   64.353317   69.202087    9.941714
H   64.592216   99.048187   44.234432
H   34.648701   27.137165   96.839912
H   68.039352    7.946215   57.783646
H   56.419231   30.049688   76.908821
H   63.447578   53.593788   10.162301
H   96.494743   81.988274   48.171314
H   43.287739   44.581650   88.917938
H   68.762634   51.307259   53.025631
H   78.719536   41.531738    7.318722
H   98.724052   52.273071   80.393280
H   72.707626   53.659775   28.984976
H   97.779099    8.992865   78.006180
H    9.705806   92.393135   76.217125
H   75.342522   58.916092   26.829998
H   55.823967   81.032410   52.997478
H   36.831299   86.586655   67.845100
H   72.093544   21.991703   51.877209
H   79.413200   96.602524   43.009109
H    2.645465   77.524956    2.585180
H   74.246147   60.110146   35.726971
H   65.966499   91.927101    9.122968
H   94.505165   74.889320   45.267120
H   17.427811   64.765839   29.621740
H   47.784111   10.099204   27.164671
H   24.712601    7.855171   49.061024
H   98.602112   17.492579   94.643188
H   15.114502   66.309105   21.759121
H   96.343002   39.781052    3.137265
H   87.456451   51.759480   75.419182
H   56.093700   36.308853    3.099070
H   24.508596   33.438389   56.639561
H    5.253367   23.365389   69.372070
H   72.657417   34.717285   50.596546
H   90.168106   30.560278    0.385474
H   22.973135   43.628788   55.249428
H   34.401405   25.579281   30.851059
H   76.766922   64.114822   81.226715
H   93.953705   66.216629    5.230688
H   30.828924   63.458405   50.589970
H   81.793976    0.280127   55.892616
H   88.383942   38.277027   21.359413
H   73.801880   32.729218   75.597855
H   92.029030   58.544594   84.094803
H   10.154806   35.724075   60.726929
H   25.558739    6.703419    0.653301
H   68.651337   70.749466   44.579048
H   61.814117   55.238827    4.566689
H   27.416800   48.722626   97.682045
H    1.285917   28.543646   79.379723
H   72.661720   17.465675   53.837280
H   98.375603   48.134846   93.457726
H   72.021973   62.772041   93.538826
H   95.346069   60.905804   43.550545
H   19.225920   44.905670    2.161505
H   48.317253   51.364109   63.016396
H   48.347439   92.231606   73.386505
