100
TIME:    8.496, STEP:  8496
H   42.771965   42.897301   91.367691
H   65.837601   65.251511   13.804587
H   25.809359   85.140518   23.609909
H   82.902634   82.614738   74.468941
H   19.067644   53.749119   35.342926
H   96.266602   92.003746   20.133003
H    7.695460   35.028732   54.851429
H   52.117447   23.614138   28.119141
H   44.779976   69.436890   65.295670
H   42.704079   38.374973   40.373482
H    9.977798    8.097625   21.372129
H   31.572693   49.551098   88.174843
H    1.987853   47.734459   80.797745
H   34.409599   78.888832    3.788526
H   83.798409   11.128220   42.327690
H   59.917633   68.637718   27.798908
H   40.909309   43.914570   46.812752
H   82.744858   81.423698    5.013992
H   77.592224   34.771236   10.965014
H   63.615757   25.392118   94.779823
H   60.112038   10.413128   26.648565
H   76.900139   55.362549   95.765427
H   72.308357   25.527842   89.269150
H   29.656668   38.465057   76.087784
H   25.718269   12.384422   99.284828
H    7.547806   75.641403   91.370636
H   29.459013   89.308182   68.544357
H   15.674166   53.004261   47.605980
H   95.907829   19.915606   55.561302
H   26.766991   80.563278   58.796112
H   50.427708   83.908302   37.202599
H    2.200026   17.777569   12.746758
H   68.804703   46.874275   63.183731
H   37.078873   95.115082   13.828581
H   69.513710   16.403557   41.956402
H   11.180498   50.874390   92.716316
H   94.676170   93.392342   77.916954
H   12.837481    3.469352   21.980682
H   86.452995   96.305260   20.986725
H   62.964241   16.816019    6.481759
H   54.609909   47.699425   42.506557
H   84.217224   74.920227   13.697061
H   84.403778   14.452774   15.148806
H   36.845539   55.250702   11.429095
H   19.691063   96.687065   83.136650
H   68.455956   24.960403   17.677237
H    8.114865   86.879097    7.019835
H   56.706173   82.876038   94.261909
H   13.378357   28.811478    5.564110
H    4.114840   60.047993   89.492180
H   42.918217   49.409737   42.988525
H   18.034315   75.373718   16.326756
H   85.100380   71.271423    9.437643
H   79.942932   68.588058    6.721858
H   64.330757    3.153185   72.607147
H    4.177517    3.596756    3.402908
H   34.861252   44.398079   64.027748
H   93.426453   74.544777   94.716698
H   60.337521   97.754143   59.248978
H   98.371346   80.819168   21.964134
H   95.634384   83.467651   51.980221
H   97.378258   48.862503   10.936951
H   50.854725   27.531519   50.874237
H   26.444504   88.044342   96.471115
H   69.545639   82.282867   86.764145
H   79.426277   19.911858   48.534184
H    5.918156   42.090588   77.248764
H   93.488785    3.432137   72.360535
H   80.341980   39.317955   27.378235
H    2.574134   75.375504   83.823730
H   52.243778   17.332458   60.238533
H   73.641693   69.499413   78.798874
H   53.036270   98.065056   43.913387
H   43.177441   11.708450   98.350746
H   71.732117   40.825123   45.474018
H   26.507425   52.087563   24.256701
H   38.401199   90.449707   41.420303
H   31.134836   95.192131   83.647400
H   68.925789   28.563290   12.471605
H   82.873802   46.202385   88.983299
H   77.138557   17.177378   87.777252
H   78.828781   99.568314   76.228096
H   55.266151   49.201328   39.059460
H   34.660774   39.180641   87.439079
H   38.646133   17.445461   24.161282
H   55.758663   21.125305   31.771362
H   34.583485   85.623741   28.665352
H   92.668083   25.215435    7.487669
H   32.002201   21.128546   58.704475
H   15.178012   59.729691   27.929018
H   71.714012   32.190182   12.882102
H    6.916864   34.459381   95.411766
H   30.063358   82.439323   76.013306
H   68.370285   28.615345   99.671074
H    9.699463   88.709457   11.315859
H   95.656326   60.234070   28.619667
H   88.230064   55.246696   48.576103
H   21.878069    6.842717    8.323084
H    3.983304   73.489983   33.408504
H   66.929184   60.609943   79.293777
