100
TIME:    2.823, STEP:  2823
H   26.414043   63.137840   96.561478
H   22.743431   57.804672   56.073963
H   28.279600   77.002136   90.200462
H   81.950439   16.342566   85.425110
H   69.885696   99.033417   89.162140
H   84.244270   98.149727   58.317760
H    5.017703   51.961021   11.215217
H   98.004059   32.827259   48.996059
H   84.233208   14.873573   22.388855
H   97.696754   56.917458   18.234705
H   37.666443   79.832153   67.822983
H   48.095863   65.193085   91.985237
H   63.689865   90.911819   44.545525
H   15.302556   96.374580   72.072380
H   14.838543   17.865595   15.072780
H   88.017227   64.819183   98.707375
H   97.098183   68.689011   30.377176
H   61.471107   57.418175    1.675175
H   89.235268   96.780182   12.089899
H   16.463310   45.864536    8.535547
H   96.755905   75.179230   80.621078
H   33.024109   47.831558   78.873764
H   48.052910   71.662941   51.581390
H   56.754227   70.539154   97.412437
H   28.616688   62.282364   57.390129
H   33.714779   43.492496   24.571962
H   18.647999   25.127787   55.985790
H   94.345695   88.207817   60.087315
H   72.554077    5.216890   23.727163
H    9.240180   20.971085    7.809293
H   27.157320   75.198868   86.032173
H   44.003059   74.513741   37.924797
H   69.206879   61.938103   52.115089
H   97.379097   15.011541   52.822174
H   10.598868   45.523041   96.630440
H   18.003258    6.245708   10.935765
H   50.561012    1.150487   30.906553
H   47.310524    7.285152   21.653133
H   25.912636   19.908308   70.742615
H   97.298676   47.903801   60.143032
H   42.319363   53.045895    8.854932
H   77.905998   38.556358   35.427521
H   35.556988   80.428635    5.382325
H   99.092087   60.086044   56.751259
H   11.781637   20.510777   97.682228
H   41.667011   16.761189   94.631905
H   63.789150   78.361786   52.558304
H   56.390179   24.448736   43.249153
H   47.547432   98.649467   31.862898
H   85.089470   73.712395   86.220367
H   43.329243   97.100693   83.182098
H   42.324650    1.785448   88.736870
H   67.438774   38.377441   38.914024
H   11.320911   61.150757   56.387421
H   16.020775    5.983978   24.359510
H   97.098434    9.565113   96.525223
H   75.216942    8.090381   24.478355
H   15.849950   10.289918   40.842484
H   12.921379   58.047543   94.759804
H   72.729034   44.773708   83.317757
H   37.778114   47.288578   94.293015
H   98.720818    1.666328   67.624466
H   65.716301   14.645628   39.889572
H   36.889618   57.150917   50.498211
H   44.372395   35.375530   58.462479
H   27.923714    1.933241   13.102720
H   61.074013   45.960247    3.356080
H   85.361748   78.987305    1.158325
H   97.598961   46.943550   83.179054
H   87.578674   90.131416   95.788696
H   32.390404    3.322405   28.285610
H   41.197792   57.835251   63.309868
H   22.926943   78.668724   89.364494
H   68.066856   70.735535   35.429268
H   98.280540   32.662266   15.400444
H   92.394051   88.500603    5.978069
H   23.264715   81.868301   40.975941
H   64.610001   66.132942   70.344910
H   96.886917   45.226688   49.177406
H   61.080116   55.208469   77.717270
H   66.125320   58.486889   48.712559
H   53.137657   62.663895   50.720192
H   96.410629   54.377350   98.776794
H   44.367931   53.729340    5.580019
H   14.872436   72.305069   74.094276
H   86.319458   12.747086   37.820995
H   55.696510   98.097816   58.154861
H    1.399557   79.278275   66.385658
H   14.267759   36.991554    5.104036
H   16.747116   93.128372   25.133736
H   39.551422   25.866077   93.078323
H   87.164490    7.812435   87.314369
H   66.413193   12.220787   37.310677
H   20.081104   84.468880   17.159439
H    7.781705   96.861786   80.956749
H   27.089844   84.254463   21.637558
H   38.525558   29.686565   74.836189
H   17.229582   40.273834   10.865911
H   74.232292   49.019138    8.581451
H   14.559128    6.192156   25.790556
