200
TIME:    0.810, STEP:   810
H   26.985968   60.583286   25.086224
H   33.044495   41.199509   13.037297
H    6.190980   94.086960   73.423759
H   37.056107   83.636055   29.594337
H    9.158307   98.175812   45.463272
H   71.075500   37.344299   48.678238
H   11.617507   54.899696   60.684155
H   15.662007   13.499167    4.840006
H   10.576307   78.960922   33.814274
H   90.796127   66.914131   73.589394
H   32.061069    6.770361   10.974205
H   33.134827   57.236961   39.901718
H   25.164120    5.925561   37.930168
H   77.462791   55.611797   69.732536
H   92.102432   76.332481   41.576118
H   12.686079    2.480924   42.026901
H   11.020959   34.414318   87.757179
H   23.027401   10.569167   33.372547
H   83.990341    9.066170   50.874756
H   91.869682   71.876915   15.374682
H   64.925667    5.212006   99.726517
H   77.339363   70.601631   48.609131
H   77.936348   58.397095   35.459373
H   20.681461   93.255943   89.798744
H   28.021545   35.628510   25.071224
H   18.189253   87.632843   88.130791
H    9.934205   70.233986   71.999802
H    7.592000   93.643150    2.231100
H   35.075893   39.204292   35.000694
H   67.291748   36.034199   78.908646
H   12.617311   75.263039   16.891701
H   21.560795   76.865707    7.636964
H   13.350792   21.250425   80.141510
H   77.561653   64.199791   48.253296
H   20.634317   66.248154   29.882849
H   14.442017   36.925697   86.012657
H    2.624379   62.126373   90.234108
H    4.720620   59.499767   89.539566
H   31.974442   25.990055   57.101730
H   84.616364   37.344509   41.430756
H   80.673912   78.596558   20.443863
H   41.710587   31.154257   22.929119
H   66.438797   74.687828   71.493675
H   36.011429   90.918068   39.133831
H   48.252724   93.685822   64.933525
H   33.038513   99.004356   48.887028
H   90.715576   98.286285    8.675986
H   76.238945   65.541908   27.156326
H    9.124305    7.121679   61.577290
H   41.719563   20.373793   81.598251
H   64.648819   63.281532    5.279351
H   99.349144   45.508770   75.796516
H   67.550987   78.121758   15.376710
H   13.923126   94.212357   90.144096
H   53.072006   63.708313   72.338982
H   97.998955   58.307045   97.313080
H    3.803794   18.902443   43.540241
H   73.636093   71.830048   95.014977
H   16.153593   85.488510   20.912388
H   29.920040   92.788490   56.457199
H   48.573471    4.255552   25.582527
H    0.181171   17.775171   53.436028
H   87.150665   37.013962   65.654724
H   37.937065   65.965553   16.394043
H   80.511200   84.576538   41.238270
H   16.379816   38.705742   43.108963
H   64.883644   11.138547   97.611549
H   94.149437   92.745857   98.556572
H   36.797211   13.555980   54.765221
H   41.955830   51.564716   50.952152
H   58.215111   86.450760   88.528076
H   16.120773    8.839545   40.774845
H   95.584610   35.517376   80.409073
H   26.435396   96.435768   77.167030
H   86.085648   10.098552   40.811340
H   67.721184   98.953178   59.152763
H   93.018372   51.169945   64.082985
H    5.443362   16.349329   28.476418
H   15.866110   55.085655   22.307062
H   59.686207   87.488007   67.229767
H   67.560219   20.468470   92.671204
H   51.700275   58.339031   70.236076
H    8.775868   19.918722   73.602242
H    6.086429   80.498360   12.428954
H   18.610405    5.351383   41.628746
H   40.725487   65.830933   15.917248
H   61.401978    3.971863    3.078113
H   70.591347   97.329773   32.941299
H   83.132584   73.444550   79.223511
H   20.589172   11.596828   48.594601
H   17.349255   39.813412   78.219162
H   80.085014   93.536530   10.805119
H   74.338043   10.433552   79.495926
H   34.468060   73.955360   84.755836
H   39.567635   49.215858   91.679634
H   45.667030   40.453323    2.261588
H   87.037682   94.563408   22.877663
H   92.808723   37.564594   54.311958
H   24.102104   64.068115   54.901245
H   77.115242    7.189167   27.389566
H   35.297634   96.186279   95.780312
H   11.767238   85.280151   62.720451
H   34.994965   16.338598   38.467793
H   49.264763   68.991882   12.798270
H   24.583143   19.982002   43.567570
H    9.989363   98.865875   17.204031
H   91.076561   36.905201   53.284901
H   61.392269   56.159485   96.700874
H   87.282265   32.894638   26.694996
H   22.677164   20.113039    8.326990
H   54.693970   91.113548    1.196887
H    8.880846   77.678894   97.003853
H   47.194099   86.889114   81.537071
H   61.293327    7.108872   60.255745
H   44.828804    5.703920    6.786618
H   90.776695   89.123451    4.648705
H    9.139340   16.468912   90.824997
H   37.879192   55.052471   22.584770
H   40.508926   79.113831   55.369091
H   85.824974   58.051205   70.606674
H   46.503670   25.547199   68.841927
H   93.695358   13.977146   64.954666
H   45.978462   97.782303   40.938770
H   95.679550   46.807571   92.903862
H   59.860558   94.839577   73.961281
H   68.605026   77.947433   14.525728
H   81.218391   51.851364   49.041367
H   62.960793   92.040489   39.816647
H   99.482262   31.851002   71.900536
H   95.372833   21.447681   76.212379
H   71.618217   64.833527   25.194256
H   59.821419   91.704758   22.768986
H   90.576485   10.326338    1.615724
H   72.971115   27.617130   56.722225
H   32.584461   91.063599   30.224335
H   47.176575    0.895308   75.284157
H   69.836395   88.017006   83.714287
H   96.080254   46.423672   74.192101
H   61.212067   52.304901   71.415276
H   43.756706   81.753105   79.619324
H   78.836731   46.306389   33.322540
H   30.997952   58.329742   59.534512
H   36.682022   67.251686   80.158401
H   31.594460    5.894613   87.569923
H   67.094620   50.863037   67.707306
H   66.825325   71.795670    2.546805
H   58.212395   94.281609   43.200588
H   27.088249   52.201118   65.554710
H   80.423309   40.993790   92.278030
H   27.631969   94.897865   68.666290
H   56.129829   70.990280   47.041103
H   57.781624   91.337349   30.289818
H    2.655360   10.525341   83.455627
H   24.977459   14.226376   61.866573
H   36.215191   68.932968   71.064796
H   80.423103   44.942249   71.598251
H   65.277756   77.978149   87.505051
H   54.149971   27.514465   23.078072
H   86.293800   99.586502   81.465813
H   57.289181   33.686676    0.115302
H   59.554970   61.252266   68.260475
H   16.841253   20.102409   30.605965
H   89.755028    9.718010   36.995045
H   32.197495   36.924541   46.812508
H   53.496498   41.429451   15.425198
H   21.734272   46.302814   59.185940
H   65.084694   88.347603   58.264294
H   24.130146   56.866364   71.582962
H    1.818469   26.316553   35.510994
H   52.485031    6.158252   83.984589
H   68.475708   12.412440   35.928238
H   26.471472   44.275345   59.208488
H   48.686165   52.961071   74.385818
H   64.207047   60.904800   87.463837
H   44.945251   90.748672   72.430046
H   18.503716   50.742340   23.840553
H   29.562145   70.727951   10.751228
H    6.781835    9.744453   72.168716
H   61.024097    8.128585   62.468700
H   59.186432   60.569450   94.425850
H   71.011246    5.615864   28.466759
H   30.724688   30.801846   90.424957
H   39.389698   89.565475   17.359833
H   63.894157   26.275059   98.159981
H   92.894104   63.611710   76.048508
H   11.193083   41.033493   86.806984
H   51.199707   94.761284   11.894999
H   63.036942   91.368843   45.471756
H   90.110939   63.715252   73.057846
H   59.978828   55.172649   72.904556
H   75.049118   12.165970   75.231026
H   42.980179    0.419482   17.364141
H   16.761444   31.084530   70.864494
H   25.145666   86.279465   44.800518
H   65.333908   28.795689   19.951756
H   76.719742   11.782114   21.757095
H   13.250133    1.101967   22.705671
H   12.343876   86.077675   30.891541
H    4.312230   13.206800   52.524666
H    2.062672   15.681185   89.829712
