100
TIME:    9.897, STEP:  9897
H   48.027985   14.419927   90.085037
H   27.144882   41.168606    2.141797
H   49.891186   85.934059    7.163782
H   83.137787   24.894659   97.673599
H    6.513670   66.045181   97.358391
H   74.546997   90.485939   58.879631
H   34.268559   29.631037   64.411469
H   42.001617   44.817699   99.483345
H   10.340721   34.735840   77.107307
H    4.434389   58.491261   95.228310
H   79.660126   64.468369   86.417549
H   78.101097   19.775467   88.450127
H   12.650869   62.935326   41.571152
H   65.041260   74.570564   10.405491
H    0.815069   85.984009   74.952171
H    3.585156   46.101181   11.503129
H   28.249245   36.580147   74.351303
H   12.708777   13.250757   56.446564
H   99.418716   93.543472   84.784149
H   25.873669   95.639130   90.166405
H   76.974213   70.941170   88.620529
H   11.215378   57.222397   76.457321
H   53.602615   14.138254   49.192833
H   99.483490   55.225067   72.037933
H   75.611191    1.277992    9.626789
H    0.939157   34.339951   59.530880
H    8.649220   31.069738   96.335190
H   97.462013   18.398212   93.913567
H   26.371990   47.025059   89.336044
H   80.488289   45.888870   70.171761
H    5.563877    9.539349   26.359955
H   90.660049   79.066879   83.049232
H   67.490028   44.370438   89.396873
H   96.273346   66.721703   54.806236
H   34.646904   10.328163   27.194510
H   32.966160   60.611073   88.312538
H   29.050404   42.086189   88.310318
H   54.929081   77.836479   20.845230
H   27.316021   65.778099   85.219872
H   31.006996   85.658768   16.709627
H   58.861481   95.773941   75.513512
H   66.148445   80.419174   85.209953
H   96.460724   22.859009   16.343754
H   47.395512   78.769997   48.408665
H   98.139771   41.381351    3.012156
H   50.378593   51.680950   23.369013
H   19.068943   63.075367   20.473352
H   56.791683   97.305893   80.947464
H   54.327454   12.781607   49.673065
H   33.520760   81.380821   91.534615
H   46.390202   14.419930   52.276672
H   86.122955   45.371208   24.359457
H   14.156322   79.394897   28.069664
H   47.497231   45.726898   68.543587
H   52.781197   25.930319   84.514450
H    5.922461    2.123040   55.709549
H   23.679123    3.972445   97.274406
H   89.105179   42.237816   58.631371
H   70.836662   56.956184   51.692936
H    5.919809   88.504227   82.116371
H   84.014557   18.315210   42.755070
H   47.654045   35.822189   47.548347
H   45.993092   31.970289   54.822372
H   22.648987   95.676132   58.438866
H   25.151134   70.386665   17.232931
H   93.361816   50.264366   31.372736
H   93.513191   90.527313   44.889782
H   96.712120   83.557076   39.336441
H   50.168289   38.651031   39.510601
H   31.027893   45.744099   80.852249
H    7.748806   22.003857   43.435768
H   58.272316   22.981834   81.491364
H   61.689590   28.764181    7.988392
H   12.340305   23.039532   15.107599
H   39.218559   42.888058   51.698750
H   59.631958   41.877857   29.987129
H   65.641548   69.190598   66.270744
H   96.951088    3.589210   61.025887
H   36.110245   24.448109   28.108690
H   14.167630   69.882668   68.285866
H    4.565546   31.671366   71.513649
H   83.958458    8.662782   59.019829
H   43.880676   72.631142   72.483871
H   31.047230   59.067093   59.478462
H   70.430328   29.803291   88.351212
H   23.510609   72.588875   29.061069
H   28.153170   83.759315   95.470238
H   15.198616   13.109740   92.966782
H   61.075687   43.122749   47.246101
H   91.310974    2.085091   78.009384
H   29.049337    7.840024   42.468651
H   10.576677   39.828094   22.103800
H   19.870136   24.473783   84.354790
H    0.200596   13.341973   99.620872
H   85.476959   63.217712   43.507423
H   11.373260    4.911093   56.256027
H   77.025139   35.646118   68.002472
H   19.173807   76.163254   80.191795
H   37.242638   79.539833   16.059666
H   53.951111   24.662479   44.330883
