100
TIME:    9.082, STEP:  9082
H    3.143842   89.159065   90.831192
H   49.653214   97.003311   50.754856
H   35.882130   27.298977   16.731544
H   83.000992   58.472282   42.347519
H   13.816660    0.719599   19.455379
H   87.181885   91.368889   78.167236
H   76.981590   74.598808    0.677394
H    6.059006   74.309738   74.315224
H   30.374977   13.094857   28.407267
H   26.697783   46.789066   63.317757
H   55.469513   31.674896   64.924278
H    9.205154   78.924416   46.462044
H   64.620651   12.267284   22.563595
H    5.395585   77.082619   48.385006
H   90.915962   58.783821   14.148079
H   36.356384   17.384178   79.155334
H   93.786507   82.674309    0.158638
H   95.278091   52.908775   84.699295
H   86.721649   59.356304   41.836063
H   47.829273   12.947577   34.677361
H   25.337959   52.076141   10.743481
H   33.080532   56.140472   45.862076
H   64.484413   20.764177   72.503555
H   75.209717   45.475311   32.565540
H    4.760676   65.913467    3.610890
H    4.783718   58.366135   36.225224
H   78.928429   64.951126   80.168503
H   66.227905   80.356766   66.977379
H    8.650170   73.082146   27.860405
H   49.236839   66.059921    5.381900
H   73.490852   36.456371   90.840164
H   39.200245    1.587937   58.497841
H   10.080177    4.000470   15.975240
H   61.838303   41.411530   89.141792
H   54.929878   72.035164   77.609528
H   62.120167   96.773163   90.874336
H   50.880531   71.932381   24.091269
H   88.616295   92.747139   63.331345
H   61.719975   83.536583   64.199112
H    7.770922   61.957817   52.588142
H   14.561232   67.805573   56.312466
H   34.832489   77.218231   43.612720
H   89.446869   17.968586   57.474133
H   99.429359   65.090492   68.723091
H   68.858734   73.572899   33.283230
H   60.893158   36.136059   20.057951
H   12.696343   18.748484   12.647388
H   56.741940   88.911652   30.519840
H   30.506088   80.278786   82.189880
H   16.415159   68.969780   48.519848
H   42.877979   92.834648   49.167206
H   46.514568   20.996460   77.859200
H   97.252083   74.669250   75.405106
H   66.369507   59.027107   32.578926
H   17.672539   54.508575   77.587646
H    4.907379    2.980341   83.454071
H   72.010300   27.489418   19.761358
H   49.791199   19.204386   79.623192
H    6.556646   22.515779   14.259947
H   59.699207   25.860744    5.296898
H   32.600697   56.214779    6.292768
H   76.579979   43.408096   84.423607
H   90.637604   87.543358   10.690460
H   66.685791   91.236511   80.563919
H   92.802872   35.479542   41.336094
H   43.427193   90.780571   83.183083
H   58.902725   62.347897    5.540511
H   53.009933   36.947273    0.374725
H    9.546627   97.211746   90.625183
H   14.475692    4.810863   82.580841
H   33.631733   77.460304   53.210396
H   25.386877   50.042381   21.753101
H   14.828564   69.076225   28.886944
H   30.279110   74.619301   63.531960
H   99.960907   41.687992   89.905075
H   40.362511   89.643913   84.825760
H   91.621902   39.730526   51.814972
H   58.661777   56.877159   16.014099
H   97.029396   26.842022   19.011820
H   54.135338   14.279512   38.498741
H   88.610695   23.239817   22.802177
H   22.802357    3.371981   27.204165
H   92.330345   59.001377   94.866295
H   74.975426   89.325417   33.916874
H   10.113327   80.786362   67.355621
H   42.270184   42.651199   72.464813
H   73.721092   43.016777   56.608009
H    2.092425   78.324501    1.411782
H   44.162846   88.501396   53.911751
H   63.369068   35.618530   48.875267
H   95.695518   63.830212   25.257347
H   50.274929   78.532776    6.577490
H   67.627228    0.018608   21.329584
H   25.005636   64.167343   39.182842
H   99.566849   36.219601   24.780138
H   44.057571   37.093079   98.351593
H   41.715599   88.876244   14.873924
H   20.746950   35.837933   96.557457
H   76.067558   76.020470   84.324760
H    3.330338   45.574558   22.841877
