100
TIME:    8.700, STEP:  8700
H   28.976238   24.189741   91.180923
H   60.203445   76.305038   26.667427
H   29.315920   99.817337   21.215393
H   82.936874   74.210197   63.287689
H   17.239656   70.100616   29.811802
H   93.104004   91.782738   40.336128
H   97.003716   48.804398   70.804497
H   36.083450   41.262119    9.388047
H   39.765266   49.823181   52.453999
H   37.132179   41.304111   48.360909
H   91.002228   16.305656    1.721798
H   23.786041   59.776623   73.653664
H   88.979446   35.387566   60.524391
H   24.309179   78.260048   19.313580
H   86.276192   92.905952   32.517723
H   51.715424   50.795189   10.864655
H   24.504890   57.406971   65.383675
H   87.106033   71.497002   97.942459
H   80.770386   43.329861   21.711933
H   58.120121   21.059889    8.669001
H   48.006386   90.104523   21.111685
H   96.457817   55.633362   78.392929
H   69.584663   23.869501   83.432663
H   10.702093   40.905487   60.937504
H   18.422661   96.206039    0.791038
H    6.585564   69.627487   72.174042
H   11.867842   80.828934   72.590988
H   98.461487   62.526295   54.349846
H    0.343579   38.423763   45.917870
H   34.588921   75.514328   75.013763
H   58.457157    2.202065   21.062767
H   15.080462   12.141590   93.861519
H   83.173355   31.948437   81.561661
H   45.698196   76.419647    5.234875
H   64.436745    0.957948   54.368664
H   28.913301   66.853638   92.075081
H   14.242543   85.921638   93.991417
H    4.406092   99.735939   36.375793
H   77.843010   91.860191    1.218141
H   43.750526   97.718025   22.532099
H   40.667709   54.698540   47.312710
H   67.025269   75.720215   24.111687
H   86.159393   15.676491   29.883236
H   23.820057   58.676331   31.374317
H    1.995679   88.640495    0.593222
H   65.822533   28.850616   18.506018
H    9.709783   97.973091    8.978851
H   56.718624   84.977173    6.884104
H   19.340912   11.916794   97.426514
H    8.396875   63.153004   75.229362
H   42.904209   29.715004   45.139465
H   27.949339   56.444202    2.935056
H   89.330666   72.454285   97.589737
H   75.217712   65.260483   15.723277
H   48.088203   21.031012   74.340973
H    4.431599    3.382168   96.458252
H   47.793350   38.511787   83.429787
H   78.236023   55.279701   89.462303
H   76.427544    6.374179   43.586960
H   84.908516   96.498306   16.161888
H    8.502934   73.979858   36.075405
H   90.137901   46.963699    1.706375
H   64.705017   13.610398   36.885345
H   40.453320   89.155609   90.933456
H   77.642014   65.990509    5.761690
H   66.894173    9.770617   60.596256
H   89.550858   49.142620   87.097641
H   79.397171   15.099591   82.112915
H   90.508362   24.659813   14.583143
H    6.717422   85.622818   83.391052
H   45.764500    3.451444   57.791878
H   56.842613   62.725975   93.752731
H   39.735306   87.973381   38.682339
H   38.687237   98.797401   86.229530
H   81.559204   41.125507   60.941486
H   31.330698   65.162712   10.530217
H   56.928543   72.793945   45.038925
H   40.717640   81.853813   94.915710
H   78.709297   27.964077   14.748224
H   72.869286   35.089714   71.408470
H   81.132271   19.287851   99.970062
H   94.137497    0.892166   59.161095
H   68.169731   52.612949   58.487957
H   48.694801   56.637184   68.805901
H   28.713211    4.684221    4.386257
H   51.063015   28.618576   45.937683
H   48.208179   70.791283   38.392830
H   95.948967    8.891264    5.372385
H   36.235600    9.770529   57.036018
H   97.141525   51.336044   35.221169
H   80.062523   43.204800   17.190208
H   22.010798   49.802338   99.299644
H   43.140202   88.559074   91.788940
H   88.086716   40.991810   13.426100
H    6.171991   70.437363   16.003336
H   12.505965   52.178162   18.082863
H   72.037315   66.953911   36.843987
H   21.484301   16.936703    4.227427
H   94.265251   74.370903   16.320827
H   79.601364   55.375782   59.642368
