100
TIME:    1.601, STEP:  1601
H    9.053505   75.201492   97.680252
H   56.735527   91.548561   78.990868
H    7.274570   89.086784    4.541600
H   81.745331   66.688866   52.407925
H   80.831039    1.084736   22.294495
H    3.189766   99.473610   37.298046
H   69.060570   69.445885   15.653145
H   94.050850   27.108936   61.196487
H   14.272362   32.363861   99.309059
H   31.087828   39.371346   70.385063
H   51.333908   30.662022   85.532883
H   94.733292    3.940647   78.968315
H   41.422585   64.844643   66.001701
H   75.809578    0.141155   79.077187
H   99.973320   27.019184   73.814896
H   37.152115   71.701775    0.144303
H   95.349472   87.873672   19.122561
H   35.357048   16.844254   44.042770
H   70.197456   45.518303   47.708431
H   49.383247   71.813583   25.336130
H   69.271027   96.832153   13.790783
H   15.862306   46.213074   82.932961
H   64.368370   81.601387   86.543091
H   70.291267   55.883213   88.169937
H   72.323112   59.199661   48.374672
H   39.317974   79.903351   39.110764
H   24.022404   75.926651   31.736357
H   97.454697   31.168972   19.692507
H   45.983185   94.347504   81.492546
H   62.382687   51.215286   10.663707
H   79.080544   65.614578   82.723114
H   66.845306    8.280091   51.051476
H   83.130203   51.345253   42.027679
H   45.747658   27.000526    4.304193
H   40.976463   37.896919   22.218529
H   11.755319   10.250341   15.135831
H   33.356018   45.904640   34.617741
H   97.820107   29.651279   35.419376
H   78.746170   46.331367   88.678543
H   12.397482   62.303898   63.998730
H   25.830711   11.117503   80.063400
H   87.732422   83.711723   78.017822
H   25.031187   73.100662   17.115547
H   77.124809   39.603149   37.271420
H   17.781006   68.721542   93.111649
H   57.432407   93.453407   89.672005
H   52.985157   12.104846   41.303658
H   56.324917   11.867186   67.638741
H   11.830556   99.855431   80.610306
H   59.467884   55.117641   71.687828
H   43.422474   15.077280   70.297546
H   82.938881   15.177874   68.960342
H   42.090477   31.291870    9.885586
H   39.616581   81.084923    2.465031
H   13.303799   98.856750   13.991749
H   95.569443   10.849373   38.124985
H   97.749039   43.350945    8.255878
H    6.843433   25.693058   72.317337
H   16.544777    6.414225   88.573807
H   53.368221   50.846851   18.073326
H   60.693096    4.119065   89.569420
H   42.088531   13.042866   22.913925
H   82.827942   97.976646   23.723488
H   52.977898   50.503532   83.673668
H   95.867928   32.974598   44.659412
H    2.993415   62.682594   40.848965
H   59.117447    3.714628   44.359142
H   69.773720    9.099671   42.739658
H   36.696159   34.748672   59.821915
H   62.816910   28.668306   98.361877
H   71.193230   86.468437   42.945957
H   41.957195   98.390823   73.840202
H    2.602993   39.113804   20.696270
H   94.954735   48.065720    8.056404
H   39.362320   30.921732   22.764774
H   63.510868   10.181284   88.202629
H   12.315027   87.783188   19.362223
H    7.198222   46.035675    2.856090
H   38.293327   48.812351   35.541389
H   21.009598   21.759684   82.993660
H   42.212345   45.844738   75.676796
H   61.448841   54.683304   52.903030
H   19.097904   33.978363   82.387268
H   60.305691   49.161236   17.196297
H   74.373886   48.741501   92.553543
H   14.442448   67.864220   52.961601
H   74.081886   86.947174   99.884842
H   81.728104   77.114731   79.101433
H   88.907173    5.031478   15.101089
H   24.788246   43.406685   81.448967
H   89.542030   59.879551   67.271927
H   96.744743   15.916445   64.025215
H   88.007637   75.601852   42.773056
H    1.969828   10.344689   34.766090
H   28.912544    6.321063   52.875511
H   26.157654   32.508598   84.755081
H   35.522141   59.558559   45.114304
H   12.743470   29.869232   30.420544
H   32.443932   43.751575   10.943348
H   38.668900   37.579929   43.486885
