100
TIME:    2.182, STEP:  2182
H   69.762604   21.920700   97.148331
H   40.573982   23.048933   15.639803
H   17.261435   30.885326   97.721962
H   81.842850   42.752403   20.559929
H   75.627075   47.654438    6.542307
H   94.181648   98.844170   94.836266
H   38.611767    8.675926   61.088097
H   48.385399   77.372253    7.849375
H   99.990211   76.502945   62.739307
H   15.212191   47.713646   93.133568
H   97.290710   54.039967   29.568518
H   72.561035   33.062881   37.611427
H    4.465987   29.693504    8.256287
H   47.041496   98.350319   23.291035
H    7.040808   75.122284   45.886147
H   13.791012   20.883553   51.916763
H   48.637909   26.296150   72.018921
H   47.772980   88.589851   23.899788
H   79.248985   69.892532   78.318146
H   33.731461   59.474636   64.893349
H   34.793655   38.992649   98.021271
H   71.570816   46.980621   33.460800
H   56.611183   76.876152   69.920547
H   16.310112   62.851383   45.020294
H   51.542717   13.121971   52.661072
H   36.653934   62.589672   84.653023
H   73.923195   51.775173   43.265751
H   48.430687   58.288097   38.897030
H   58.616318   47.059883   54.027672
H   84.661324   36.835678   56.851192
H    1.935657   17.717009   36.750004
H    3.530074   92.226921   97.265419
H   24.054420    8.837078   94.368744
H   70.295830   73.755508   79.827194
H   26.533958   93.977539   57.595734
H   62.271008   55.892574   13.138909
H   89.081207   24.627016   80.398438
H   73.803856   19.017284   76.418556
H   52.971451   33.873291   32.859810
H   57.672672    7.911321    9.708986
H   86.125664   31.053473   93.751511
H   35.515472    9.786153    5.313970
H   30.035681   76.584747   59.080498
H   40.023293   49.341743   94.078537
H   67.382256   45.799252   42.830963
H   49.936749    4.535084   92.030190
H   58.776447   43.502716   46.401237
H   56.355946   17.849085    3.587734
H   28.812147   51.735409   57.435005
H   71.650536   63.960835   31.052631
H   43.378147   58.985588   76.423508
H   11.174170   61.266712   30.817722
H   54.142929   34.660706   76.143364
H   26.163403   71.607857   28.101442
H   67.052246   49.791241   18.921339
H   96.296402   10.238771   18.346375
H   34.580914   26.586555   63.513802
H   63.580658   70.824570   57.352615
H   62.365372   30.964182   43.970207
H   15.029959   95.502960    1.549234
H   97.342484   77.097969   44.269382
H   21.468845    7.633890   96.624786
H   22.236126   58.357368   83.864426
H   92.873230   53.664032   67.902199
H   18.928680   86.571411   98.766266
H   67.301552   33.799263   75.202217
H   12.502474   23.800749   72.409134
H   29.640251   42.328552   70.514816
H   65.654594   93.001732   23.380867
H   74.589661   57.892700   97.138458
H   52.744423   46.936623   35.977093
H   94.051575   79.108673   16.377111
H   64.721191   10.376751    5.798038
H   82.170891   11.297761   73.525810
H   67.372948   31.748426   66.808334
H   77.243462   47.418915   49.108097
H   65.067413   37.425621   29.639387
H   34.494656    8.044588   34.943874
H   66.145599   47.109509   42.022690
H   92.515877   90.117676   32.939857
H   53.582165   51.855450   10.402035
H    5.040440   58.477676    4.319613
H   55.858105   43.677063   37.724522
H    0.271146   98.878151   64.128265
H   46.084534   12.398083   36.231934
H    1.069345   89.203133   93.307838
H   12.885580   44.703751   27.589598
H   91.081055   30.598206   73.056221
H    0.964194   72.681999   10.348150
H   73.420975   19.501251    2.220175
H   13.319092   91.253464   79.541580
H   39.734486   59.611179   75.098045
H   25.284981   93.013412   87.720413
H   58.127201   45.587551   73.938789
H   18.865879   54.280113   66.226738
H   74.145828    9.566914   54.745850
H   89.405716   92.901161   11.700632
H   14.876697   34.816101   21.123001
H    4.768021   46.256039   62.273613
H   74.750900   22.656490   87.527740
