100
TIME:    4.758, STEP:  4758
H   95.558754   85.688545   94.789932
H   69.070992   62.694519   78.113525
H   61.540367   16.213573   67.495155
H   82.275223   36.621513   79.361458
H   52.554077   54.132187   36.694870
H   54.241299   96.053398   49.947277
H    3.604288   82.620743   62.534801
H   45.916878    0.230182   71.330849
H   36.667213   28.831192    0.587025
H   44.816124   84.701195   94.006714
H   57.677460   57.690968   81.434525
H   74.242363   62.184593   54.249214
H   40.449234   73.864418   52.243164
H   19.493023   90.410378   19.325624
H   38.375954   45.023438   22.059113
H   10.214790   95.576859   38.085876
H   41.497139   96.676224    6.527860
H    2.814667   63.307903   34.588818
H   19.375854   77.957947   14.032900
H   64.325493    4.774553   40.279366
H   81.930260   82.543488   28.104301
H   18.534439   50.400299   14.090591
H   22.217873   55.925713   96.217392
H   76.971725   93.746399   53.703270
H   59.410553    8.825699   71.678749
H   24.856672   85.997955   42.997288
H   51.791756   44.693188   94.372353
H   31.075905   78.527069   24.045633
H   14.629479   80.775108   32.258156
H   83.436478   73.079094   61.635872
H    3.311371   48.714207   32.941124
H   66.180244   21.054459   58.792152
H    5.503839   20.364279   26.435171
H   79.138092   37.680359   71.304314
H   62.500351   99.251633   14.457932
H   86.242691   58.095722    4.468617
H   36.153275   30.288380   83.377182
H   67.333260   71.881081   58.199215
H   44.236721   77.749016   83.226929
H   15.043371   66.756126   12.383478
H   10.076405   19.442747   54.442120
H    3.998656   25.399031   26.334963
H   52.224277   92.032257   45.148880
H   75.528610   92.507111   45.947609
H   43.934223   44.164238   63.265522
H   16.702984   53.668385    2.489638
H   78.906540   83.593712   71.139091
H   56.493519   44.375824   62.976006
H    4.113536   38.391857   54.677017
H   25.667187    3.151152   50.882637
H   43.181614   10.289127    3.583752
H   36.361671   22.232164   61.709450
H    7.566617   49.597229   26.531393
H   66.504539   29.572960   41.773155
H   61.955994   75.569588   40.816547
H   99.519547    7.528769   30.653259
H   97.889236   52.256706    8.512857
H   71.765030   27.553492   90.999374
H   65.528893   39.806702   46.209175
H   45.039272   93.503204   28.281746
H   59.839050   57.301540   43.424294
H   30.044119   83.655289   80.070343
H   97.080635   82.605515    7.200127
H   69.763954   67.682007   97.957703
H   21.174875   80.830902   38.661243
H    9.054207    5.738729   27.513418
H    5.824907   12.859719   96.777756
H   51.698204   89.651871   93.662514
H   94.039383    7.906784   61.820595
H   26.783747   87.456055   91.714142
H   70.944420   71.665588    5.071217
H   81.647980   93.616028    4.979831
H   96.760345   82.956093   39.754005
H   25.466381   48.284412   20.449150
H   91.573860   35.422924   62.086758
H   38.140709   12.515474   75.775742
H   98.950119   14.154156   75.196297
H   55.519817   39.606533   77.207008
H   89.676704   39.542980   70.770866
H   66.183868   49.823536   11.015240
H    3.978676   78.505356   64.363380
H   98.323036   75.300919   88.916161
H   18.828257   86.689880   83.071838
H   77.492065   19.311369   28.847252
H   20.654154   51.270088   86.517738
H   41.787251   83.824226   72.193130
H   84.930779   57.407562   50.423370
H   32.541977   24.357397   46.262108
H   54.425888   29.253935   89.276497
H   45.667774   13.517570   94.305023
H   18.739677   30.350525   33.942059
H   30.342714   53.326187   24.188055
H   90.450630   70.284157   86.947983
H    7.105987    1.840020   47.625607
H   74.327705   23.536766   25.419643
H   86.912857    7.843748   21.692284
H   84.934898   40.732403   63.552017
H   24.330526   56.749207   79.897255
H   82.053040   57.360165   46.505173
H   34.748493   56.533421   39.387165
