100
TIME:    8.462, STEP:  8462
H   45.071281   46.015282   91.398819
H   66.776627   63.409176   11.660781
H   25.224932   82.694382   24.008995
H   82.896927   84.015495   76.332466
H   19.372309   51.023869   36.264832
H   96.793701   92.040581   16.765869
H    9.477345   32.732788   52.192585
H   54.789780   20.672808   31.241013
H   45.615761   72.705841   67.435715
H   43.632729   37.886784   39.042244
H   13.140396    6.729587   24.647177
H   32.870468   47.846844   90.595039
H    4.155961   49.792274   84.176682
H   36.093102   78.993629    1.201031
H   83.385445   14.165268   43.962685
H   61.284668   71.611473   30.621304
H   43.643379   41.665836   43.717598
H   82.018021   83.078148    6.192541
H   77.062531   33.344799    9.173862
H   64.531845   26.114157   92.464943
H   62.129646   13.798031   27.571379
H   73.640526   55.317413   98.660843
H   72.762306   25.804232   90.241898
H   32.815796   38.058319   78.612778
H   26.934204   15.080879   99.033730
H    7.708179   76.643723   94.570068
H   32.390892   90.721390   67.869919
H   18.542986   51.417255   46.482002
H   95.168541   16.830957   57.168541
H   25.463379   81.404770   56.093170
H   49.089466   80.859322   39.892570
H    0.053276   18.716854   15.894310
H   66.409927   49.361916   60.120743
H   35.642319   98.230988   15.260855
H   70.359871   18.977837   39.887691
H    8.225031   48.211136   92.823189
H   91.415001   94.637459   75.237877
H   14.242712    4.091600   19.581497
H   87.887993   97.046104   24.281487
H   66.166702   19.998980    3.806702
H   56.933609   46.532906   41.705532
H   87.082550   74.786896   11.961289
H   84.111176   14.248821   12.693007
H   39.016453   54.679764    8.104892
H   22.640305   98.028160   80.227226
H   68.894859   24.312035   17.539106
H    7.849027   85.030098    6.693348
H   56.704098   82.525848   92.158180
H   12.384598   31.627258    6.920444
H    3.401167   59.530491   91.869316
H   42.920551   52.692177   42.630035
H   16.381811   78.528534   18.558758
H   84.395332   71.074280   11.412321
H   80.730469   69.142654    5.221621
H   67.037849    0.173529   72.318176
H    4.135170    3.632521    4.560349
H   32.705902   45.379128   60.794075
H   95.958191   77.755623   95.592430
H   57.655849   96.317589   61.859314
H    0.615094   78.205978   22.931175
H   93.489670   85.048950   54.631023
H   98.584984   49.178970   12.475384
H   48.546329   29.851717   53.205719
H   24.109779   87.859131   97.394058
H   68.196243   84.998260   83.597916
H   81.514961   21.602104   46.523838
H    8.646105   40.915249   75.607285
H   95.837387    1.487565   70.735138
H   78.647583   41.760979   29.510757
H    1.883597   73.667618   83.895844
H   53.323658   19.645912   60.646309
H   76.441650   70.628319   76.306564
H   55.253098   99.747002   44.785229
H   43.925808   13.860298    0.370928
H   70.094269   40.775059   42.896107
H   25.703547   49.908348   26.544474
H   35.313309   93.392334   40.817200
H   29.537584   97.415184   81.769348
H   67.295204   28.663158   12.092169
H   84.541222   48.054497   91.912437
H   76.472939   16.825632   85.745117
H   76.277328   99.347824   79.072670
H   53.115471   48.632725   35.821377
H   32.321770   36.271217   90.544609
H   40.301620   19.572277   27.457081
H   56.541271   19.876427   29.410309
H   32.312702   88.095818   27.044106
H   92.121269   27.936146    7.840226
H   31.296505   23.021513   58.982552
H   18.184080   61.128632   26.713602
H   70.322594   30.354412   12.164084
H    4.401209   31.902225   94.763786
H   27.883884   81.419365   73.384033
H   65.084213   26.552601   97.378502
H   10.287392   91.754807   10.534613
H   92.848068   61.576721   30.375801
H   90.928856   53.295494   50.531456
H   21.943697    5.160414    9.005693
H    5.602961   73.343163   36.256451
H   64.817154   61.482304   82.568954
