100
TIME:    1.579, STEP:  1579
H   10.541256   77.219009   97.700394
H   57.347496   90.355843   77.603111
H    6.896391   87.503990    4.799874
H   81.741638   67.595238   53.613903
H   81.028091   99.321342   22.890968
H    3.530925   99.497444   35.119228
H   70.213676   67.960442   13.932716
H   95.780006   25.205723   63.216522
H   14.813164   34.479065    0.693859
H   31.688971   39.055458   69.523674
H   53.380295   29.776798   87.652115
H   95.572861    2.837936   80.534325
H   42.821922   66.175667   68.188408
H   76.898903    0.208981   77.403084
H   99.705772   28.984249   74.872330
H   38.036667   73.625969    1.970453
H   97.118240   86.418777   17.119562
H   34.886909   17.914108   44.805466
H   69.854713   44.595314   46.549450
H   49.975914   72.280869   23.838266
H   70.576538   99.022217   14.387897
H   13.752767   46.184036   84.806129
H   64.662102   81.780312   87.172516
H   72.335304   55.619358   89.803757
H   73.109978   60.944427   48.212364
H   39.418850   80.558960   41.172760
H   25.919491   76.841080   31.299788
H   99.311081   30.142086   18.965311
H   45.504822   92.351471   82.532524
H   61.539089   51.759781    8.914828
H   78.215126   63.641708   84.464020
H   65.456207    8.887906   53.088127
H   81.580643   52.954903   40.045746
H   44.818123   29.016701    5.230980
H   41.523308   39.559944   20.878944
H    9.842454    8.522108   15.211446
H   31.245987   46.710304   32.884220
H   98.729500   30.053944   33.866962
H   79.735123   46.801003   90.787033
H   14.469633   64.363518   62.267727
H   27.334114   10.362613   79.545090
H   89.709656   82.724449   76.984222
H   24.841688   72.968735   15.526471
H   78.529686   39.234390   35.120464
H   19.689339   69.589645   91.229080
H   57.716236   93.033791   89.582710
H   52.752857   10.918044   41.115669
H   56.323742   11.640676   66.277504
H   11.187535    1.677423   81.487808
H   59.006474   54.782787   73.226646
H   43.424152   17.201296   70.065582
H   81.869698   17.219309   70.404495
H   41.634102   31.164307   11.163319
H   40.125996   81.443779    1.494282
H   15.055237   96.928192   13.805061
H   95.541916   10.872494   38.873917
H   96.354233   43.985741    6.163460
H    8.481575   27.770748   72.883987
H   14.809746    5.484648   90.262680
H   54.819927   49.155796   18.699059
H   59.305340    5.142133   91.284813
H   42.869354   13.247681   23.909424
H   81.335785   99.476860   25.232765
H   51.467110   50.383858   84.270866
H   94.994789   34.731785   42.610508
H    4.344887   63.776283   39.548153
H   60.882523    2.954051   43.297009
H   71.293404    7.841412   41.687931
H   35.599617   36.329453   61.201782
H   62.371277   27.561777   98.408203
H   71.891808   87.965294   43.209812
H   43.771114   99.120956   72.229546
H    4.037484   40.201954   21.260403
H   95.438805   49.458008    9.363930
H   38.301697   30.890429   21.096966
H   62.990711    8.771288   89.683037
H   10.317568   89.689926   18.973070
H    6.164622   47.474289    1.641080
H   37.238747   48.876804   35.295998
H   22.088516   22.957857   84.888985
H   41.781818   45.617138   74.361885
H   59.798069   54.539627   54.742630
H   17.705952   33.611115   80.291870
H   58.792217   47.278667   19.205757
H   75.445084   50.117676   94.686203
H   14.948841   67.056206   51.433861
H   72.612556   88.546753   98.835800
H   81.373947   78.876114   79.330040
H   88.450630    6.256381   15.281063
H   26.733337   44.311882   80.662437
H   88.641701   58.691700   66.807327
H   95.116966   14.261896   63.606094
H   86.596046   74.942551   41.071091
H   99.843422    9.010224   33.282829
H   29.292969    8.291733   52.369957
H   24.340546   33.377373   85.891403
H   37.268417   58.296017   46.379532
H   12.662694   29.681915   30.772602
H   33.491966   43.656742   12.786137
H   37.302628   38.145069   45.605782
