100
TIME:    6.858, STEP:  6858
H   53.543533   93.109535   92.867325
H   11.075226   76.489601   10.523711
H   97.652252   67.295967   42.839985
H   82.627701   50.101227   64.254150
H   33.744568   22.456282   79.757080
H   21.669125   93.778313   57.917637
H   93.542770   24.422344   26.757685
H   80.861015   81.905884   78.515388
H   85.045143   26.924759   68.401405
H   87.443153   14.855562   76.236183
H   62.340576   42.188953   79.151817
H   94.088913   67.446747    4.769537
H    6.443527   46.872005   43.576103
H   15.514168   83.937599   79.137215
H   63.903267   57.442467   21.101818
H   25.778858   11.903330   63.767090
H   72.627510   35.574017   97.699135
H   47.722599   61.128754   61.790077
H   52.079296   66.056870   24.668262
H    7.752678   60.172314   83.257164
H   57.313278   73.482269   71.102959
H   19.863480   53.188080   35.256210
H   94.178017   38.846550   36.135910
H   81.851189   18.869844   97.738327
H   84.303291   42.286743   87.187782
H   15.271206   23.926498   45.514854
H   70.706734   57.399742   36.041546
H   53.882980   76.547966   93.460983
H   60.291527   71.303444   32.989960
H   63.959248   21.104607   28.579533
H   85.961037   37.025826   66.795876
H   98.775696   63.029018   64.384651
H   53.426105   66.718437   15.619756
H   67.868599   45.227890   82.835083
H   10.279255   40.423195   42.298164
H   68.791893   22.576843   97.865059
H   37.570541   53.380981   48.848850
H   80.538124   33.448238    6.392380
H   55.595585   31.990961   79.721329
H   17.246841   70.161041   77.608261
H   66.555893   91.498573    3.916960
H   22.259216   68.496796   30.073551
H   70.307220    4.627048   96.835228
H   41.436703   27.753927   51.274055
H   61.774055   61.308186   42.968082
H   89.600792   93.722702   11.022612
H   95.312790   97.798721   91.294426
H   56.606197   66.005157   92.912125
H   65.493294   64.469276   70.907303
H   69.724365   35.116581    4.020061
H   43.030689    7.547622   25.720016
H   38.425747   27.367729   23.851418
H   51.128941   61.773743    4.566221
H   17.877769   95.306534   34.440079
H   94.750351   59.608131   58.680775
H    2.137390    5.319773   59.164291
H   31.019320   91.661537    8.240330
H   15.395032   29.234331   36.910019
H   31.152885   28.539639   84.995338
H    6.462446   54.917736   68.552757
H   92.308159   59.641235   79.691971
H   55.514107   64.108780   85.051239
H   39.650135   39.305824   63.196808
H   13.965836   79.121521   40.945911
H    4.527641   13.106804   34.225086
H   80.049744    1.341921   51.682327
H   37.338730   85.460846   98.165665
H    6.636772    9.753333   94.054657
H   98.702614   57.014191   30.110806
H   69.324425   93.079033   87.292145
H    4.259245   28.783371   79.883736
H    8.506589   23.914433   58.739265
H   59.836868   79.083069   85.909241
H   79.236412   15.377014   95.675049
H   92.823112   38.418987   21.281139
H   87.784370   47.106777   34.473259
H   89.635345   32.223415   12.369120
H   54.181637    2.291939   93.180672
H   90.379631   33.374615   94.194633
H   63.202194   35.432411   30.098259
H   45.073433    0.230872   89.876038
H   55.914803   88.945908   13.264492
H   51.659943   21.808020   83.064682
H   21.969471   99.012718   37.044605
H   18.401655   19.912781   82.946251
H   93.452194   60.962166   18.023727
H   25.185106    4.720076   50.559303
H   66.324516   56.290646   24.471069
H   98.004990   12.330072   72.101204
H   60.000278   27.119061   69.371948
H    4.680301   43.743652   78.290207
H   85.721451   11.266696   64.194389
H   25.064365   33.293514   49.344246
H   10.066321   29.239710   89.223450
H   38.022469   35.431938   73.675995
H   60.364273   24.916487   13.224491
H   18.246656   61.246246   42.779694
H   25.039797   25.793556   41.207054
H   82.013847   66.416710   70.608604
H   65.186424    2.648183   37.087704
