100
TIME:    2.568, STEP:  2568
H   43.658600   86.522697   96.794937
H   29.836708   43.978035   39.988605
H   23.896399   58.656113   93.192635
H   81.907639   26.849215   99.401550
H   72.169708   78.594040   96.076431
H   88.197517   98.425987   33.063282
H   18.381939   34.741440   91.273796
H   18.046562   10.767168   72.409401
H   90.501595   39.390732   38.440556
H    4.664865   53.256035    8.248477
H   61.385925   69.571609   92.386810
H   57.829178   52.411179   10.136251
H   79.911369    6.339775   69.889946
H   27.928795   97.160561   52.666874
H   11.736450   40.642853   27.330412
H   98.269989   87.122345   19.875189
H   17.604008   51.822968    7.163517
H   56.021774   69.818764   10.516479
H   85.262566   86.083847   98.655945
H   23.332855   51.278851   91.174049
H   11.887863    0.564100   87.543152
H    8.577011   47.493042    0.589378
H   51.457527   73.736839   58.876999
H   80.446472   67.480835   16.351242
H   37.736809   82.507568   55.508835
H   34.884022   51.089657   48.472679
H   40.637344   35.728161   50.925556
H   15.861799   76.305275   51.657482
H   67.009415   82.081184   35.780785
H   99.462624   27.282272   87.537529
H   17.121481   52.332508    6.206964
H   27.902138   81.560326   61.531441
H   51.244678   80.595406   29.142675
H   86.604942   38.380814   63.565201
H   16.937851   64.799011   81.101494
H   95.831619   86.214531   11.812211
H   26.103954   10.489801   10.813600
H   57.849274   11.952358    3.658969
H   36.677063   25.463671   95.454300
H   21.316877   71.776344   40.079136
H   59.745312   44.297001    2.846114
H    0.823943   27.111008   23.447855
H   33.360523   78.899475   86.962730
H   15.375086   55.811790   31.819727
H   33.900867   30.570934   75.861549
H   44.956844   11.897449   93.596901
H   61.795017   64.494293   50.108925
H   56.376560   21.823290   27.471184
H   40.094238   19.768017   42.035881
H   79.743248   69.833076    4.056255
H   43.348698   21.719831   80.493423
H   29.932005   25.447601    5.476496
H   62.150238   36.898865   53.725082
H   17.225491   65.311562   45.134674
H   36.322021   83.629913   22.196119
H   96.779373    9.833105    5.206024
H   59.050472   15.448731    0.225505
H   34.837982   34.372025   47.410477
H   92.810066   47.273388   14.336092
H   89.557571   25.172842   90.570564
H   21.692133   59.146374   14.174932
H    7.770428    4.040319   79.161255
H   48.419094   32.035439   57.383469
H   19.378912   55.763779   57.422230
H   34.249981   55.742924   34.713814
H   43.588844   14.609993   98.025551
H   81.532845   37.145206   91.044754
H    2.976347   64.403870   88.967850
H   84.890984   65.266228   99.171028
H   82.411438   77.306709   96.325653
H   40.487556   20.672956   31.344902
H   62.222763   66.298157   44.638947
H   39.553680   91.283318   95.901360
H   73.677666   86.871475   50.584679
H   85.985008   32.298458   96.069321
H   86.366905   72.158440   23.136112
H    0.112279    3.969320   36.466282
H   52.629635   82.805840   56.262341
H   84.657532   45.975704   46.331146
H   73.585762   69.096649   99.685806
H   61.135952   55.848797   33.471546
H   34.003708   60.998550   72.042824
H   80.278580   50.120605   74.489227
H   26.825397   31.908663   28.871368
H   27.289516   88.254242   98.813744
H   92.187073    3.380489   20.113094
H   38.665642   16.638412   45.995514
H   97.294891   99.694305   69.039314
H    8.975525   51.189781    7.190337
H   39.292805    3.619156   16.018116
H   29.115784   12.096833   87.693192
H   68.297073   88.637016   82.454521
H   50.051579    4.580339   17.582642
H   95.434242   69.002190   99.966225
H   12.191158   19.703499   75.096916
H    6.027885   94.324348   34.808563
H   58.766495   15.052579   89.501335
H   16.293798   38.102661   14.946102
H   86.379967   47.919933   29.941048
H   98.722763   12.742086   50.350739
