200
TIME:    0.871, STEP:   871
H   28.860338   60.380840   26.129286
H   33.588074   42.090038   15.513712
H    4.912458   96.756920   76.428337
H   39.112213   84.349037   27.999203
H    8.510654   99.721848   44.586239
H   69.091064   35.688663   46.872746
H   12.501288   54.856415   61.864857
H   17.028984   16.133060    2.674803
H   13.053478   78.046425   32.326180
H   88.648804   66.059204   71.183311
H   34.187218    8.073403   12.901863
H   33.387070   58.865139   42.808331
H   26.661289    7.950224   35.430077
H   74.579681   55.869160   72.671959
H   89.157425   76.802063   41.426029
H   10.908103   99.967575   40.711002
H   13.892816   37.270859   84.797882
H   21.578981   13.501783   32.286552
H   86.019920    6.857806   51.772732
H   92.063751   71.039207   13.009962
H   65.657730    8.256983   96.931831
H   75.981346   72.933250   46.258430
H   76.109680   57.953575   33.995712
H   21.973509   93.812088   89.607468
H   30.672890   38.081829   22.894581
H   18.138758   90.340034   86.116104
H   11.115547   71.457970   74.452423
H    8.992019   96.159531    2.391602
H   37.645096   37.350166   34.643505
H   64.535225   37.668427   76.798553
H   12.537671   77.811531   16.966280
H   20.451530   78.295395    9.138852
H   11.876892   22.562950   80.886604
H   75.542778   64.266342   49.319511
H   17.706879   63.727612   29.418736
H   12.446918   35.535187   86.709557
H    4.375119   60.809776   90.692055
H    1.703330   61.077682   86.797005
H   29.716820   23.805849   58.457653
H   84.031364   37.093662   39.047943
H   80.692062   75.746956   22.468555
H   44.746811   29.875008   21.120253
H   65.340469   73.286530   73.758743
H   35.875534   93.880760   41.315361
H   50.336987   95.546928   67.134834
H   32.180096   97.416901   49.550446
H   91.865097   95.297531   10.013293
H   74.753876   65.540977   24.963394
H   11.483382    4.806872   61.621269
H   39.536636   20.649073   79.017647
H   63.197723   62.509445    2.861896
H   97.017525   46.558697   77.107994
H   69.196617   76.377464   16.173132
H   13.015203   95.499634   91.047424
H   50.490005   62.351692   70.366180
H   97.217094   56.804058   99.310547
H    3.629723   19.133278   42.885899
H   74.302536   73.248100   93.913857
H   14.866432   86.666885   22.387684
H   28.509201   92.445961   55.329552
H   48.375912    3.065437   23.800188
H    1.277421   17.919676   53.903748
H   88.831200   38.277504   63.596710
H   39.415154   66.052582   17.756016
H   81.491783   85.485916   43.732777
H   13.986931   41.075523   44.205429
H   62.605080    9.851793   98.871834
H   93.807838   92.884544   99.764267
H   38.966873   14.380307   53.993134
H   41.604691   52.627907   50.948895
H   58.188351   87.505806   90.159744
H   14.406382    7.236194   40.347847
H   97.520645   36.571957   78.366463
H   28.422741   95.094971   78.942970
H   86.828415   11.085999   37.943123
H   69.263031   96.799805   58.754154
H   92.760544   53.440830   63.219933
H    3.184030   17.460106   26.390526
H   16.331154   57.801689   20.951954
H   58.766823   87.147804   64.336884
H   70.149200   19.437508   91.765549
H   54.382568   57.241867   68.350304
H    8.537878   20.587841   71.817459
H    4.097252   82.493034   14.417055
H   16.438183    5.996447   39.900043
H   42.443951   63.696640   14.647481
H   64.135918    4.098973    3.217963
H   70.084068   95.059586   35.241970
H   84.999741   73.593010   79.443176
H   20.283642   14.331187   47.923504
H   14.792241   40.340004   77.947838
H   79.660110   94.071732   12.136143
H   77.236046    9.745584   77.758614
H   31.732700   71.763824   86.430786
H   41.113205   48.390717   94.220215
H   43.140877   41.817158   99.393494
H   87.865150   92.453316   25.504807
H   95.382812   39.246990   55.774921
H   22.719887   63.457054   55.117420
H   78.175873    8.180303   27.404459
H   38.019253   97.872864   98.652718
H   14.035389   86.203026   62.383972
H   36.259438   14.109299   39.320160
H   52.195808   69.104507   15.220757
H   24.502281   19.180363   45.545258
H   12.404404   95.879448   14.348064
H   89.715286   36.928005   52.115601
H   61.032753   58.501575   94.342262
H   88.832489   32.124645   29.644657
H   24.636702   19.262533    8.625540
H   55.496540   90.583466    1.239805
H   11.330035   79.212830   97.698685
H   46.134632   87.596977   80.210236
H   61.086693    5.793817   58.682949
H   42.793175    8.243977    4.647730
H   88.287308   87.339134    7.400661
H    6.631279   17.327911   91.536118
H   37.569706   58.054955   21.365440
H   42.825420   81.404030   52.354507
H   87.434769   59.268673   72.882446
H   47.140327   25.952557   66.843063
H   91.063560   12.532101   66.748756
H   47.449104   95.209610   42.748451
H   94.780876   44.612545   90.232506
H   58.035286   93.329376   71.943802
H   70.839378   79.616798   13.348162
H   79.702141   52.136185   46.685547
H   61.626511   92.518913   40.331837
H    0.232948   29.642944   70.510406
H   98.329475   21.158556   77.251602
H   74.080612   62.655487   27.525410
H   57.480026   92.309769   24.207516
H   90.377296   13.294033    2.069634
H   69.980034   29.181084   57.472904
H   35.597881   89.960617   27.421272
H   45.551888    0.817020   74.385483
H   69.937386   88.172447   86.750977
H   96.600563   44.519051   73.228271
H   62.806503   53.157967   71.400848
H   43.789749   78.827644   77.924362
H   81.856667   44.512531   35.293015
H   28.189886   60.183170   60.956520
H   34.721088   68.374214   78.100899
H   28.799309    3.686500   88.580757
H   69.961906   48.839973   69.701981
H   69.060608   72.846527   99.625252
H   59.655113   94.014473   42.763817
H   25.422607   49.930466   65.204735
H   82.054047   38.446926   91.671623
H   29.576498   95.563843   66.383537
H   53.979946   72.026245   46.580597
H   60.349430   89.649368   28.378216
H    5.489174    8.244450   81.314354
H   26.589930   15.626569   60.358932
H   38.634071   70.544159   72.168243
H   82.233948   45.093502   73.475182
H   65.916275   79.807610   88.227341
H   55.017231   26.535744   24.507177
H   83.501907   99.356598   79.203537
H   56.605286   31.197716    2.456046
H   60.154163   58.774048   66.638580
H   13.977108   19.786291   30.077511
H   92.380775    7.058415   36.969681
H   34.436501   38.716537   44.202816
H   52.912430   43.499287   16.024563
H   22.785246   44.361893   58.852486
H   64.034302   87.360970   58.910957
H   24.183434   59.641735   74.105392
H    2.647508   26.118179   35.366955
H   55.268780    5.697920   83.297668
H   67.310364   13.137872   35.923119
H   24.364056   42.009579   59.395809
H   49.864773   50.339745   72.669449
H   63.455730   59.446026   88.879097
H   42.110077   90.289795   69.561829
H   20.385765   51.073467   23.903149
H   28.935493   72.633736   13.302746
H    7.322476    9.802628   72.948715
H   59.463867    6.710474   61.755486
H   56.284939   61.223793   95.286362
H   69.897560    7.801960   27.048590
H   31.955070   30.876308   92.651863
H   36.580818   89.500786   18.568459
H   65.222404   26.387917    0.404097
H   93.682945   60.965950   75.797195
H   12.470063   41.548218   87.112282
H   53.323761   93.716476   13.246616
H   60.106361   93.952705   47.606281
H   88.344307   63.987274   73.755005
H   61.088093   54.840824   73.675247
H   77.962944   10.147793   74.795418
H   42.480114    2.077283   16.587168
H   18.116436   32.535786   72.262070
H   24.080032   88.713936   46.029854
H   63.240482   26.071161   19.752218
H   76.868668   11.931796   20.921366
H   13.655606    2.765442   24.764570
H   10.571019   84.865326   29.171215
H    3.498790   13.377483   49.796532
H    1.426436   13.614549   88.982231
