100
TIME:    4.232, STEP:  4232
H   31.128864   33.925293   95.271500
H   83.598274   34.189743   44.947281
H   52.498940   78.371239   73.667244
H   82.186935   58.292046    8.192040
H   57.265411   11.970965   50.957291
H   62.399853   96.623253   97.854820
H   31.171642   47.103237   21.400919
H   87.259438   54.722897   19.625332
H   49.597298   79.403793   33.697353
H   59.190910   77.148613   73.411682
H    6.604691   36.526081   32.102146
H   94.315697   35.818779   91.691078
H   74.014481    5.672295    4.509320
H   45.536827   92.031654   79.297440
H   31.979126   92.008362   47.344624
H   31.365631   41.582939   81.747986
H   83.794807   61.883228   58.644005
H   91.571495   88.898369   52.825359
H   11.183189   55.892662   86.320618
H   78.499626   15.944910    4.466856
H   13.143829   34.908535   42.379311
H   68.106308   49.702026   58.884384
H   29.240730   60.203636   11.267127
H   25.842873   87.437866   92.767471
H   78.223785   50.541473   67.794106
H   27.254477    1.544922   92.460579
H   97.148460   66.559891   83.938393
H   75.457428   53.975159    6.657576
H    3.191269   33.051785   57.123085
H   63.266830   86.097466   19.820354
H   82.611549    1.547704   74.556572
H   32.968151   35.585754    7.486586
H   68.454811   58.848930   79.048935
H   56.913757   85.885254   93.464439
H   75.574905   39.013451   82.427475
H   40.517872   16.897633    6.123504
H   85.702744   49.551254   41.930286
H   89.076027   81.504402   21.082409
H   66.440552   89.210320   34.199638
H   64.585350   15.997363   71.000183
H   46.024185    1.395857   42.049786
H   51.273087    1.791367    1.624810
H   47.693531   88.877991    7.156138
H    9.117487   83.694427   94.517456
H   89.560966   64.915955   18.254412
H   23.489071   43.635731    0.351351
H   74.797165   54.988609   66.090660
H   56.465427   38.958191   30.430077
H   88.736435   81.955292   75.659088
H   14.635280   95.147530   87.672951
H   43.221745   61.071266   98.038345
H   10.800135   71.042053   96.238098
H   96.656776   46.547302   57.082470
H   78.688194   38.156898   18.562771
H    3.836256   29.470537   36.341984
H   98.861404    8.082144   48.559540
H   64.540695   67.434105   58.485878
H   10.932252   77.227348    4.547884
H   24.045729   17.581066   86.590370
H   79.750061   53.074535   43.242439
H   26.658735   81.764061   84.435768
H   48.712669   88.551224    3.868339
H   61.372120   18.498932   43.269524
H   33.643028   64.816681   12.239613
H    0.296747   22.840813   89.676506
H   41.366585   31.887459   96.412674
H   48.027481   94.674438   71.383102
H   88.032463   59.569962   68.516670
H   67.826065   45.701797   94.808228
H   16.127062   61.001495   92.821747
H   87.646782    7.454285   11.381523
H   25.019688   11.073264   66.470207
H   31.057699    8.975399   53.241905
H   37.047756   81.570641   51.702721
H   66.211311   34.672482   22.212484
H   25.704233   78.804893   11.170078
H   51.193611   59.745762   65.894020
H   30.807384   74.001320   48.158279
H   64.450600   41.088009   64.903770
H   91.979828   78.470757   56.330620
H   93.687851   73.063644   32.925060
H   58.858063   71.865738   32.900757
H   85.555367   77.897949   32.977123
H   41.304794   74.300362   76.888687
H   46.266403   84.170723   37.507401
H   53.894657   64.505348   35.666245
H   49.800438   95.652039   25.341734
H   24.076296   66.470100   51.731911
H   43.510361   58.541069   93.578499
H   92.172714   35.160011   75.499817
H   97.213440    1.948171   22.833902
H   91.421570   13.769192   14.165590
H   56.732887   54.499191   46.271587
H   56.267437   69.936050   12.161058
H   83.421303   70.653557   13.334086
H   43.467453   28.613739   48.860710
H   26.685894   10.546336   93.802475
H   22.400244   52.270630   88.316658
H    7.110454   55.092785   90.562157
H    2.077821   70.031136   90.058029
