100
TIME:    6.671, STEP:  6671
H   66.189774   10.258133   93.038528
H   16.239155   66.357201   98.732765
H   94.436478   53.842216   45.035671
H   82.596313   57.805389   74.503540
H   35.419510    7.467412   84.827560
H   24.569599   93.980904   39.397686
H    3.343874   11.794769   12.134043
H   95.558846   65.727142   95.684258
H   89.641960   44.903992   80.171654
H   92.550728   12.170162   68.914375
H   79.734863   34.664555   97.165291
H    1.225494   58.073353   18.079948
H   18.376419   58.181431   62.157402
H   24.772736   84.513985   64.907341
H   61.631966   74.146233   30.094288
H   33.298141   28.259071   79.289551
H   87.664894   23.205982   80.675789
H   43.723568   70.228226   68.272499
H   49.167408   58.211838   14.816920
H   12.790344   64.142860   70.525322
H   68.410126   92.097809   76.179146
H    1.935608   52.939835   51.181000
H   96.674736   40.367409   41.486023
H   99.225502   16.632784   11.626595
H   90.991646   57.117256   85.806740
H   16.136141   29.447884   63.105232
H   86.831261   65.173599   32.330708
H   69.661331   67.819435   87.280533
H   56.225441   54.337170   41.829773
H   56.788670   25.732811   13.714066
H   78.602135   20.257359   81.590721
H   86.968353   68.196243   81.696190
H   40.253414   80.400459   98.773315
H   59.967552   62.365372   90.713303
H   14.933496   54.581734   30.920259
H   52.536114    7.929858   98.452858
H   19.635044   60.229126   34.113926
H   88.267967   36.870884   93.196037
H   63.489498   36.065605   97.843231
H   34.860012   87.666611   62.896053
H   79.336243   85.081291   99.511574
H   38.018509   67.763474   20.526810
H   68.697906    3.505269   83.327263
H   53.376728   24.615194   32.990936
H   77.995399   68.686539   26.966028
H   92.014763   90.155960   10.262896
H   93.851852   87.629227   89.499641
H   56.595684   64.079117   81.341614
H   60.027229   79.957497   78.366074
H   65.798096   32.270321   17.095297
H   43.043530   25.601751   23.749035
H   29.336052   44.720642   36.126717
H   47.249752   60.689453   15.426950
H   22.207794   98.356812   26.188568
H    9.639729   43.219666   57.090008
H    1.904482    5.516479   65.530212
H   19.164896   97.057304   90.454979
H   29.318895   46.894096   41.726547
H   16.405121   20.637165   99.350761
H   18.802223   40.543766   73.871483
H   80.512230   68.337662   94.272812
H   62.151100   65.849350   93.511551
H   26.954245   52.066200   76.019958
H    1.124756   78.102859   46.023525
H   97.105423   28.042179   16.810202
H   91.537506   10.637924   40.625427
H   52.341873   78.995056   89.137527
H   19.554344   99.058266   85.114975
H   89.383430   70.450821   41.839680
H   65.535118   83.674248   87.685913
H   10.197626   41.506653   82.126503
H   23.912958   30.127640   45.041550
H   72.029419   88.331787   90.702942
H   83.353859   27.212177    6.785833
H   83.806389   38.152195    7.104778
H   83.364464   35.121098   47.055298
H   72.651947   48.409290    9.052763
H   45.396038   14.519514   82.854240
H   81.411415   33.923893   92.108803
H   72.373001   45.619026   46.208519
H   41.413956   98.296219   78.699295
H   41.883240   87.733215   28.908936
H   39.831200   18.680700   65.256653
H    9.104234   83.010887   54.123592
H   27.507193   31.610268    1.073844
H   97.755112   54.092621    5.037633
H   12.695803   18.316750   41.642448
H   63.317039   71.254578   26.409950
H   94.124374   22.741518   73.630623
H   76.533188   34.813236   62.686729
H   97.027428   33.646919   74.341110
H   71.885345   97.202698   60.631851
H   13.077346   27.682316   34.883247
H   91.993446   17.894617   76.614304
H   41.255363   52.182785   69.378784
H   44.918854   32.300385   22.883331
H   33.089348   50.514633   53.534134
H   25.400751   16.540714   44.960693
H   90.922142   65.609200   86.270882
H   53.571537    7.446699   55.102604
