200
TIME:    0.235, STEP:   235
H    9.317513   62.491589   15.254080
H   27.919720   32.805172   89.694199
H   18.242491   68.919304   45.101921
H   17.673964   76.915321   44.630444
H   15.263229   83.602524   53.730389
H   89.781250   52.950703   65.697441
H    3.286792   55.307678   49.554585
H    2.776580   88.670471   25.249809
H   87.225418   87.581184   47.841393
H   11.037212   74.968925   96.269676
H   12.019397   94.487373   92.803665
H   30.757126   41.889385   12.504034
H   11.051455   86.841942   61.496605
H    4.640022   53.185841   42.024868
H   19.863274   71.906097   42.990894
H   29.446129   26.172379   54.430866
H   83.972198    7.484329   15.674807
H   36.680912   82.926674   43.609383
H   64.859062   29.882933   42.410229
H   90.040344   79.773338   37.664547
H   58.025070   76.508659   26.069546
H   90.140343   48.623253   70.767372
H   95.154938   62.577812   49.256180
H    8.502326   88.013596   91.601761
H    3.029136   12.502872   45.588764
H   18.665232   62.114395    7.121687
H   98.798943   58.696430   48.880829
H   94.395538   69.923172    0.718115
H   10.858003   56.681709   38.367641
H   93.275368   20.630402   98.798859
H   13.368020   51.240360   16.188700
H   32.016975   63.389145   93.480026
H   27.244110    8.877950   73.118080
H   96.592033   63.572464   38.202904
H   48.228382   90.007614   34.257122
H   33.224583   50.035954   79.419144
H   86.120956   74.536919   85.917397
H   33.162231   44.625977   15.392252
H   53.255302   46.579659   44.320492
H   90.130699   39.709049   63.891693
H   80.502823    5.457369    1.358320
H   13.090441   43.211735   39.979397
H   76.791885   87.896790   50.142620
H   37.292404   62.991131   18.569511
H   28.606174   76.142601   44.183479
H   41.130154   13.968621   42.633499
H   79.879929   26.457142   96.069374
H   90.237549   65.550682   47.827408
H   86.887001   28.941906   61.162727
H   62.296326   17.778940    5.923964
H   78.327179   70.559402   28.066887
H   21.329252   35.611919   63.434124
H   52.041935   94.565323    7.862810
H   22.481009   82.078186   81.629120
H   77.410538   76.496132   90.935059
H    5.369751   72.473236   78.484497
H    5.444753   16.726540   49.708225
H   67.354050   58.463161    5.393684
H   28.286667   74.380875    7.005555
H   43.218933   96.017250   67.086662
H   50.435711   15.473957   42.382587
H   89.846855   16.413038   49.027863
H   71.309563   25.102890   85.053604
H   24.004892   65.145203    3.555869
H   71.267998   76.004532   17.725143
H   38.935833   16.366871   32.773422
H   86.361916   23.267454   85.731819
H   97.369423   91.438560   87.172562
H   16.344635    5.785680   62.043091
H   45.265747   41.542839   50.982861
H   58.467358   76.505653   73.147598
H   32.281006   23.953259   44.799828
H   77.335098   25.576656   99.663185
H    7.702471    9.074594   60.427078
H   79.084152    0.790642   67.847816
H   53.187378   19.253128   62.910145
H   95.448715   29.764059   72.216301
H   26.740435    5.878891   48.138512
H   11.492546   29.470657   35.049198
H   68.351433   90.694832   94.498749
H   43.155888   30.186554    1.207839
H   26.416609   68.680161   88.011803
H   11.019220   13.611455   90.426010
H   24.837116   61.696098   93.688568
H   39.086269   99.270981   57.923893
H   24.526346   85.949265   27.886906
H   35.631123    2.773690    1.759861
H   75.373070   18.730434   11.253600
H   65.534996   72.038231   77.148132
H   23.469173   85.823044   54.920513
H   41.452419   34.849632   80.776726
H   84.090256   88.491592   98.258743
H   47.022171   16.918489   95.872231
H   60.252075   94.613281   68.967377
H   24.998205   56.993835   67.731537
H   69.479134   27.597507   29.296772
H   79.237770   14.452112   98.113884
H    7.032146   28.361013   48.546230
H   37.131203   69.828117   52.863529
H   67.117493   97.846130   27.249186
H    9.643169   80.288147   68.704353
H   90.386375   76.580925   65.892181
H   23.075750   37.352676   30.432966
H   21.635643   67.930252   89.963814
H   25.345367   27.538441   24.925430
H   87.225159   27.017681   44.124859
H   65.421448   30.034697   56.282501
H   64.780647   34.082401   18.934944
H   72.669495   40.152767   98.890816
H    4.206115   28.130102    5.512793
H   47.128757   96.110229    0.792333
H   85.793190   63.219547   90.454208
H   57.180882   80.216637   94.044128
H   63.241112   19.505140   75.082916
H   64.017113   81.760361   26.947973
H   14.242546    5.943586   78.708824
H   32.780514    8.372305   84.121811
H   40.796482   26.750374   34.078453
H   18.672455   57.525890   83.786774
H   70.650681   46.575069   49.156239
H   40.502388   21.726208   87.683670
H   18.504837   27.598476   48.041088
H   32.115852   22.033443   23.880825
H    4.150978   67.498764   18.084158
H   77.065987    9.075892   92.978500
H   47.539165   62.215614   25.627926
H   95.510918   49.166580   71.247864
H   75.538040   87.530754   34.960346
H   92.406189   52.664658   85.004211
H   67.502846   24.173044   66.416428
H   48.407120   85.364227    3.220269
H   81.891922   86.001785    9.209073
H   92.454079   82.351471   97.337959
H    1.165756   12.874759   49.645542
H    4.179080    1.460527   56.646645
H   62.491249    1.633267   83.755264
H   68.884438   86.551781   55.089752
H   91.175697   64.377022   83.277374
H   46.182541   44.263710   71.551270
H   43.445236    9.329737   95.596420
H   50.370121   63.215702   14.748434
H   57.468475   40.858906   46.130333
H   55.166233   56.668961   99.552895
H   57.942192   26.708693   78.041573
H   40.066914   69.932899   48.905048
H   45.756931   61.889576   30.085636
H   44.612999   96.799690   47.317696
H   42.788971   73.604813   68.853661
H   65.051605   65.001022   97.994164
H    9.302593   88.620209   90.184044
H   76.396461   61.225033   51.381943
H   33.576893    7.248049   48.309017
H   75.943474   32.025547    3.640129
H    9.777717    1.027973   76.076080
H   13.414268   53.746994   60.662746
H   63.353668   43.516506   53.907131
H   59.258923   60.733650   80.696579
H   45.974979   36.740120    9.606993
H   12.610642    1.753172    2.790344
H   63.735733   57.147827   78.049194
H   53.906834   84.612518   83.548828
H   43.838863   23.082212   35.587292
H   65.004128   34.787937   37.234131
H   11.091149   20.032776   71.412720
H   59.002060   21.918703    9.775416
H   11.827550   64.598320   62.329155
H   74.985931   97.647835   52.168694
H   23.627846   30.705074   47.805958
H   94.005020   28.186470   36.868740
H   26.244778   10.497446   90.459656
H   79.460510    5.574358   35.976494
H   46.335670   65.632812   57.442760
H   37.576336   77.669083   90.564713
H   71.285820   74.664139   74.128159
H   71.670258   95.074158   99.466522
H    0.753003   47.633842   23.281948
H   35.469109   52.764957   86.698807
H    1.685688    9.196091   64.816269
H   75.729439   21.495798   69.193321
H   86.538376   54.401466   86.314468
H   81.509102   85.010239   41.835552
H   19.126816   30.099941   69.433632
H   65.865326   90.170944    5.971069
H   51.372047   25.211079   77.006340
H   85.458305   88.551247   78.417435
H   99.155754   36.181580   83.929176
H   31.177933    4.610214   99.154373
H   90.661263   67.012764   25.351595
H    6.763174   61.151108   66.486267
H   49.522648   58.300510   65.639847
H   47.581413   31.189770   79.337166
H   47.693905   84.793320   24.688074
H    3.989409   17.405073   57.691677
H   35.190922   63.331516   33.212517
H   85.066193   54.478668   21.832640
H   75.315933   10.371177   29.634874
H    9.428044   85.423073    3.298012
H   29.054802   97.505554   47.107723
H   11.979986   11.597904   78.240685
H    8.059888   35.162132   97.818260
