100
TIME:    4.268, STEP:  4268
H   28.694431   30.623901   95.238541
H   82.604012   36.140640   47.217331
H   53.117744   80.961266   73.244820
H   82.192978   56.808891    6.218721
H   56.942963   14.856524   49.981155
H   61.841473   96.584251    1.419961
H   29.284878   49.534237   24.216166
H   84.429909   57.837246   16.319820
H   48.712349   75.942551   31.431185
H   58.207085   77.665520   74.821228
H    3.256062   37.974628   28.634453
H   92.941856   37.623283   89.128517
H   71.717239    3.495216    0.932140
H   43.754295   91.920692   82.036880
H   32.416939   88.792664   45.614002
H   29.918045   38.434258   78.759705
H   80.899910   64.264267   61.921227
H   92.340538   87.147697   51.577038
H   11.743904   57.403008   88.217407
H   77.529533   15.180399    6.917871
H   11.007538   31.324520   41.402351
H   71.557663   49.749817   55.818649
H   28.760078   59.910851   10.237090
H   22.498085   87.869629   90.093948
H   76.936188   47.686401   68.059975
H   27.090368    0.480647   89.075142
H   94.044273   65.063553   84.652504
H   72.419708   55.655518    7.847601
H    3.974096   36.318020   55.421303
H   64.647263   85.206474   22.682156
H   84.028236    4.775832   71.708366
H   35.241222   34.591217    4.153917
H   70.990456   56.214958   82.292099
H   58.434814   82.586060   91.947777
H   74.680069   36.292137   84.619797
H   43.647327   19.717274    6.010242
H   89.155746   48.232895   44.766956
H   87.587929   80.845772   23.622723
H   64.921143   88.425896   30.710981
H   61.194649   12.627101   73.832458
H   43.563797    2.631016   42.897930
H   48.037613    3.407147    3.316069
H   48.003620   89.093872    9.756407
H    6.818717   84.297577   98.037476
H   86.438103   63.495522   21.335115
H   23.024624   44.322376    0.497696
H   75.078415   56.946373   66.436180
H   56.467350   39.328979   32.657555
H   89.788925   78.973602   74.223175
H   15.390315   95.695198   85.154884
H   43.218998   57.595741   98.417923
H   12.549570   67.701660   93.874939
H   97.403297   46.756042   54.991497
H   77.854332   37.569405   20.151257
H    0.969960   32.625538   36.648228
H   98.906448    8.044241   47.334015
H   66.823105   66.395348   61.909767
H    8.251657   73.827629    3.620562
H   26.884871   19.102261   83.826759
H   77.374268   55.841717   42.218513
H   28.929747   80.089745   81.628761
H   47.434959   88.216141    2.239392
H   63.816303   16.042252   40.800896
H   36.115227   65.012787   11.262104
H    1.725682   19.965553   93.028984
H   39.155037   30.097786   98.541275
H   45.139175   95.919189   73.121140
H   85.545708   61.628799   70.237679
H   69.620132   43.115067   92.550537
H   16.856417   62.812317   92.745941
H   86.503654    5.004814   10.949623
H   22.051319    9.878432   69.105827
H   28.710333    7.194790   52.318779
H   36.255093   79.292625   49.563683
H   67.947151   34.723843   24.941626
H   26.555399   81.112022    8.747799
H   54.462318   56.625370   66.530678
H   32.498730   71.647499   50.146530
H   66.177101   40.982265   65.305321
H   90.214325   76.510246   53.229179
H   94.392075   73.436081   35.076733
H   61.559326   72.100845   29.890406
H   87.832832   78.498901   36.405956
H   43.781387   77.380928   73.600479
H   44.513535   81.919075   34.017593
H   53.066013   65.827553   38.166183
H   52.204796   93.034546   27.058348
H   24.655687   63.587837   51.357552
H   44.257431   56.536613   93.284065
H   88.989975   33.678780   76.786865
H   98.686707    3.892048   23.594156
H   94.085205   16.476440   14.851549
H   59.040565   55.579422   49.055523
H   59.747082   72.119583   14.588350
H   82.798927   67.429070   14.161288
H   46.440903   27.192245   47.001274
H   23.828487   12.612247   91.732101
H   22.532354   52.577148   87.740425
H    5.395522   55.247967   87.546959
H    4.313848   69.107185   86.590195
