100
TIME:    3.366, STEP:  3366
H   89.693756   13.341906   96.064346
H    7.638362   87.244003   90.326309
H   37.613243   16.067547   83.828896
H   82.041580   93.970146   55.662350
H   65.022095   42.557247   74.438766
H   75.826180   97.561455   12.091934
H   76.557396   88.625816   53.678520
H   55.325333   79.803421   99.138329
H   70.885231   62.666214   88.209236
H   82.857384   64.714134   39.499496
H   87.157913    1.681024   15.519667
H   27.369629   92.411026   53.333275
H   29.151493   58.059723   90.576073
H   88.416618   94.700905   13.393597
H   21.444176   69.362656   88.971718
H   66.184875   17.326569   53.634132
H   53.433479    4.606334   79.808609
H   73.071739   31.012215   82.850281
H   97.694786   19.560465   40.695667
H    1.835220   34.335232   45.505547
H   64.533508   21.121193   65.881134
H   85.082047   48.552399   32.632263
H   40.803078   67.246758   36.046036
H    6.303663   77.051575   57.086086
H    9.197131   19.218361   61.398476
H   31.224333   27.314413   73.675270
H   71.825668    2.555443   66.760048
H   48.528156   13.553192   78.034660
H   84.360947   54.481705   98.060402
H   30.059963    7.531314   50.975708
H   48.529354   23.891535   43.071739
H   78.288551   59.509903   87.656593
H    7.453449   22.209534    1.032815
H   20.322830   65.248940   29.946033
H   97.100693    4.476272   29.694252
H   65.216148   48.902493    9.068120
H    2.642610   81.265121   73.692986
H   24.869186   97.348122   59.969532
H    2.991224    8.078653   18.121809
H   46.153591   97.069199    2.863707
H    5.209966   71.677597   21.647200
H   29.104271   62.928223   60.938644
H   40.234165   83.684845   44.603054
H   64.417175   69.185333    9.843940
H   64.678963   99.087646   44.148861
H   34.661602   27.118092   96.835854
H   68.031540    7.891829   57.774040
H   56.419178   30.039392   76.846947
H   63.418350   53.676605   10.202193
H   96.473778   81.973061   48.241253
H   43.287815   44.678192   88.907394
H   68.714035   51.400055   53.091282
H   78.698799   41.525940    7.376801
H   98.747215   52.289391   80.349152
H   72.787247   53.572136   28.976473
H   97.777847    8.993917   78.040222
H    9.642411   92.421989   76.122017
H   75.416985   59.010529   26.855759
H   55.745102   80.990158   53.074253
H   36.897285   86.509796   67.873543
H   72.030464   22.038208   51.955173
H   79.448692   96.611832   43.054359
H    2.577574   77.593193    2.653753
H   74.177483   60.104706   35.754124
H   65.926811   92.006966    9.029840
H   94.566597   74.939034   45.207993
H   17.508045   64.731262   29.573458
H   47.853188   10.042010   27.116865
H   24.662758    7.927025   49.123745
H   98.581848   17.442282   94.645294
H   15.146257   66.377144   21.771118
H   96.425461   39.814240    3.064049
H   87.521652   51.808941   75.444817
H   56.115719   36.372139    3.158488
H   24.460382   33.436962   56.563755
H    5.229725   23.301298   69.439362
H   72.566628   34.803963   50.578861
H   90.121124   30.625666    0.330247
H   22.925184   43.631725   55.238266
H   34.450447   25.633743   30.937210
H   76.747360   64.104477   81.166946
H   93.878677   66.210098    5.314310
H   30.765654   63.441711   50.494724
H   81.725174    0.194554   55.983948
H   88.432632   38.339581   21.456352
H   73.824890   32.692482   75.528412
H   91.962242   58.617302   84.047119
H   10.138712   35.804138   60.737328
H   25.537983    6.759096    0.661482
H   68.739746   70.790604   44.543304
H   61.773193   55.184834    4.545571
H   27.342806   48.647423   97.662987
H    1.221818   28.513639   79.302391
H   72.565071   17.405018   53.769859
H   98.392891   48.224422   93.434746
H   71.939377   62.811531   93.590477
H   95.425446   60.848415   43.608055
H   19.222250   44.897156    2.177505
H   48.364891   51.359798   63.100159
H   48.285328   92.257271   73.482834
