100
TIME:    2.029, STEP:  2029
H   80.109528   35.951614   97.288406
H   44.829948   14.753534    5.988880
H   14.631514   19.878296   99.517265
H   81.817169   49.055809   28.946377
H   76.997482   35.390812   10.690590
H   96.553596   99.009926   79.684746
H   46.629932   98.344505   49.123299
H   60.410896   64.135101   21.897629
H    3.751300   91.213226   72.369667
H   19.392866   45.516792   87.142998
H   11.522385   47.883640   44.305744
H   78.399857   25.393740   48.502312
H   14.198091   38.950172   23.463104
H   54.617256   98.821907   11.647243
H    5.179698   88.789001   53.241287
H   19.943253   34.265450   64.616959
H   60.938889   16.178017   58.088890
H   44.503380   96.030205   29.204571
H   76.865364   63.474632   70.256790
H   37.853188   62.723225   54.476387
H   43.872894   54.224712    2.174191
H   56.901615   46.777985   46.489738
H   58.653954   78.120491   74.297913
H   30.525459   61.016392   56.383934
H   57.015007   25.256027   51.532295
H   37.355480   67.148773   98.994438
H   87.115990   58.135777   40.229610
H   61.339828   51.146572   33.839558
H   55.289520   33.178383   61.260246
H   78.794487   40.622391   44.687954
H   95.916847    3.996012   48.856045
H   93.869598   96.454872   11.429344
H   13.277273   20.030876   80.585297
H   63.831337   87.777084   86.273010
H   30.337597    5.543262   48.279533
H   48.968487   43.872913   13.664777
H   74.405945   30.230627   68.342590
H   80.128273   21.817631   65.621056
H   59.505783   37.194832   47.657524
H   72.083611   22.234808   97.671341
H   96.582314   25.803553   90.146896
H   49.266235    2.919127   98.126038
H   28.717802   75.667252   48.029694
H   49.793571   46.777191   79.118454
H   80.654427   51.835346   29.737490
H   51.910648    1.616845   91.409187
H   57.504444   35.194214   44.960884
H   56.347775   16.273817   94.120979
H   24.340231   64.406456   63.538803
H   68.442802   61.632076   41.753246
H   43.389820   73.756569   74.810303
H    3.739069   75.463608   40.862316
H   50.969048   33.773560   85.028831
H   29.706150   74.103539   21.350378
H   79.231827   36.377827   17.623304
H   96.104965   10.399567   23.554855
H   24.881838   31.001274   48.962273
H   74.973480   85.273376   61.293411
H   50.299019   24.499105   55.716721
H   25.125942   83.743607    5.900664
H   87.691269   84.213814   56.197994
H   26.898529    9.058285    3.547383
H   11.858152   68.790672   94.360764
H   82.367554   52.831749   72.055443
H   12.855815   98.790680   84.518234
H   76.700630   41.405373   66.155663
H   24.778357   18.511141   65.022476
H   40.208961   33.578491   63.200535
H   58.028893    3.995316   32.977219
H   71.489319   50.196709   97.460632
H   57.602715   57.347023   37.812778
H    6.667268   84.186417    5.175106
H   74.696915   17.944340    9.721325
H   85.537376   20.980051   82.619057
H   59.996262   31.530725   55.210064
H   73.627174   37.612450   59.402493
H   51.175499   50.687286   26.933008
H   27.306438   18.048910   26.493809
H   58.809715   47.558445   40.315376
H    0.019263   98.449844   46.120979
H   50.588047   50.272594    1.257741
H   93.560852   57.478470   17.113775
H   46.177708   41.123016   23.151981
H   89.746773   85.785744   78.103149
H   53.534225   21.968643   51.063614
H    4.590935   83.583763   82.683098
H    2.667049   55.828094   20.293989
H   88.618057   42.847824   74.648415
H   97.789009   81.200935   11.599785
H   86.947617   25.796486   96.750542
H    7.057686   82.991333   76.310501
H   28.413054   48.105129   72.182137
H   15.468594   88.428268   75.884018
H   43.338711   36.306370   63.622261
H   21.511559   67.985016   62.710838
H   61.508667   15.608553   62.648453
H    1.550235   84.120750   20.499863
H   14.314935   33.513397   23.571407
H   12.056334   45.596516   75.090378
H   65.249100   26.586197    2.263763
