100
TIME:    6.599, STEP:  6599
H   71.058914   16.860762   93.104446
H   18.227406   62.455738   94.193214
H   93.198318   48.662163   45.881069
H   82.584229   60.771698   78.449829
H   36.064407    1.696362   86.779831
H   25.686359   94.058907   32.267010
H    7.117334    6.932892    6.503531
H    1.217908   59.498295    2.294875
H   91.411858   51.826477   84.703514
H   94.517281   11.136211   66.095284
H   86.432129   31.767462    4.100784
H    3.973694   54.464344   23.204796
H   22.970901   62.535862   69.311699
H   28.337524   84.735909   59.427998
H   60.757454   80.577629   33.556629
H   36.193039   34.556435   85.266113
H   93.454689   18.443958   74.121346
H   42.183834   73.731766   70.768593
H   48.046253   55.191147   11.023890
H   14.729980   65.672157   65.623222
H   72.682709   99.265289   78.133614
H   95.032898   52.844254   57.312469
H   97.636040   40.952980   43.545959
H    5.915344   15.771456   16.974028
H   93.566841   62.827400   85.275002
H   16.464357   31.576485   69.876030
H   93.039635   68.166275   30.901937
H   75.736771   64.458717   84.900894
H   54.659889   47.804699   45.233337
H   54.027805   27.514793    7.990463
H   75.768761   13.801015   87.287132
H   82.422211   70.185867   88.361595
H   35.181576   85.668404   92.286987
H   56.925438   68.963760   93.746628
H   16.725449   60.033150   26.539461
H   46.277203    2.290380   98.679176
H   12.729314   62.865845   28.440588
H   91.244164   38.188694   88.114861
H   66.528412   37.634453    4.820489
H   41.641323   94.406723   57.230953
H   84.257019   82.610466   97.815285
H   44.086258   67.481125   16.851059
H   68.078278    3.073334   78.126335
H   57.973957   23.406698   25.951212
H   84.241127   71.527603   20.804621
H   92.944206   88.782669    9.970385
H   93.289352   83.713699   88.808601
H   56.591839   63.337540   76.886658
H   57.922798   85.920876   81.237900
H   64.286377   31.174227   22.129507
H   43.048473   32.553055   22.990154
H   25.836082   51.401978   40.853035
H   45.756161   60.271973   19.608622
H   23.874969   99.531250   23.011597
H   15.372669   36.909668   56.477520
H    1.814806    5.592216   67.981262
H   14.600583   99.134819   83.607201
H   34.680084   53.693535   43.581039
H   10.726710   17.594501    4.878066
H   23.553261   35.009403   75.919334
H   75.970482   71.686295   99.886826
H   64.706520   66.519516   96.768997
H   22.066153   56.979286   80.957214
H   96.180832   77.710648   47.978542
H   94.247879   33.792782   10.104972
H   95.960602   14.217133   36.368225
H   58.118484   76.505554   85.661453
H   24.527855   94.940590   81.672958
H   85.795296   75.624283   46.355610
H   64.076134   80.053154   87.837524
H   12.484018   46.405457   82.990028
H   29.849695   32.517166   39.769760
H   76.723877   91.893555   92.548645
H   84.939186   31.769032   11.063654
H   80.334709   38.049473    1.646563
H   81.662682   30.506378   51.899719
H   66.112885   54.641285    7.775865
H   42.013348   19.227430   78.878288
H   77.958412   34.135380   91.305702
H   75.904007   49.541145   52.411400
H   40.004959   97.551346   74.395950
H   36.480713   87.266296   34.932331
H   35.276817   17.476599   58.399635
H    4.150773   76.849754   60.699459
H   31.013205   36.114113    8.053333
H   99.411850   51.447662    0.037643
H    7.887085   23.551735   38.209221
H   62.159081   77.015808   27.156471
H   92.630234   26.750154   74.219490
H   82.898666   37.775700   60.113182
H   94.080894   29.759251   72.820602
H   66.558075   91.787537   59.260208
H    8.462127   25.521854   29.315378
H   85.034706   13.526530   71.759445
H   42.500114   58.632309   67.724243
H   38.971954   35.143646   26.602203
H   38.804436   46.382675   57.674881
H   25.539728   12.978124   46.405945
H   94.352074   65.298286   92.301277
H   49.099552    9.294304   62.038822
