100
TIME:    6.701, STEP:  6701
H   64.160965    7.507036   93.011063
H   15.410717   67.982719    0.624284
H   94.952377   56.000572   44.683422
H   82.601349   56.569427   72.859253
H   35.150803    9.872038   84.014114
H   24.104282   93.948402   42.368801
H    1.771599   13.820545   14.480082
H   93.200905   68.322662   92.929893
H   88.904503   42.019623   78.283379
H   91.731331   12.600975   70.088997
H   76.944336   35.871677   94.275429
H    0.080408   59.577106   15.944595
H   16.462051   56.367085   59.176445
H   23.287407   84.421516   67.190208
H   61.996346   71.466484   28.651646
H   32.091934   25.635170   76.799316
H   85.252480   25.190159   83.406807
H   44.365124   68.768417   67.232460
H   49.634556   59.470459   16.397350
H   11.982162   63.505833   72.567863
H   66.629883   89.111359   75.364784
H    4.811737   52.979660   48.626221
H   96.274193   40.123421   40.627716
H   96.438179   16.991671    9.398487
H   89.918648   54.738029   86.028297
H   15.999384   28.560966   60.284264
H   84.244438   63.926636   32.926029
H   67.129898   69.219734   88.272049
H   56.877754   57.059032   40.411621
H   57.939030   24.990318   16.098900
H   79.782707   22.947521   79.217216
H   88.862579   67.367233   78.918938
H   42.366680   78.205482    1.475955
H   61.235100   59.616043   89.449417
H   14.186827   52.310310   32.745590
H   55.143993   10.279616   98.358559
H   22.512432   59.130493   36.477818
H   87.027885   36.321796   95.313194
H   62.223095   35.411919   94.935974
H   32.034466   84.858231   65.256393
H   77.285919   86.110802    0.218346
H   35.490280   67.881119   22.058372
H   68.956085    3.685241   85.494316
H   51.461216   25.118734   35.924057
H   75.393013   67.502762   29.533281
H   91.627495   90.728165   10.384775
H   94.086227   89.260696   89.787575
H   56.597286   64.388107   83.197845
H   60.904076   77.472755   77.169479
H   66.427979   32.726940   14.997682
H   43.041470   22.705366   24.065235
H   30.794373   41.936752   34.157417
H   47.872082   60.863403   13.684587
H   21.513138   97.867462   27.512306
H    7.251012   45.848831   57.345211
H    1.941847    5.484921   64.508942
H   21.066675   96.191673   93.308220
H   27.085123   44.060997   40.953842
H   18.771072   21.904942   97.047752
H   16.822624   42.849751   73.018211
H   82.404625   66.942398   91.933640
H   61.086342   65.570114   92.154282
H   28.990950   50.019081   73.962769
H    3.184835   78.266281   45.208935
H   98.296066   25.646130   19.604048
H   89.694550    9.146587   42.399261
H   49.934952   80.032349   90.585892
H   17.482048    0.774007   86.549149
H   90.878487   68.295212   39.958042
H   66.143028   85.183037   87.622742
H    9.244963   39.465485   81.766701
H   21.439318   29.132004   47.238129
H   70.073395   86.847717   89.933899
H   82.693306   25.313488    5.003387
H   85.252922   38.194996    9.379051
H   84.073540   37.043934   45.036789
H   75.376556   45.812626    9.584799
H   46.805492   12.557882   84.510887
H   82.850166   33.835773   92.443428
H   70.901749   43.984810   43.623985
H   42.001038   98.606583   80.492355
H   44.134293   87.927765   26.399132
H   41.728859   19.182409   68.113556
H   11.168176   85.578026   51.383648
H   26.046354   29.733665   98.165688
H   97.064804   55.194687    7.120973
H   14.699434   16.135506   43.072960
H   63.799522   68.854065   26.098900
H   94.746933   21.071253   73.385262
H   73.880905   33.578876   63.759041
H   98.255150   35.266716   74.974655
H   74.105042   99.459015   61.203369
H   15.000354   28.582508   37.203194
H   94.892921   19.714685   78.637161
H   40.736717   49.495483   70.068176
H   47.396729   31.115778   21.333801
H   30.708124   52.236282   51.808823
H   25.342844   18.025127   44.358505
H   89.493004   65.738747   83.758217
H   55.434864    6.676884   52.212513
