100
TIME:    5.713, STEP:  5713
H   30.975073   98.111046   93.915604
H   42.695412   14.442046   38.328411
H   77.962082   84.920395   56.284161
H   82.435516   97.273773   27.013515
H   44.000229   30.679567   10.802788
H   39.428715   95.018776   44.524067
H   53.550831   47.107456   37.217121
H   70.855759   82.848892   83.645271
H   13.191490   37.011810   40.474022
H   18.719404   98.413582   31.404730
H   68.845688   96.117706   89.444405
H   37.792191   10.053713   86.271797
H   79.508560   16.114010   57.349297
H   72.207329   87.466805   92.001381
H   49.989952   59.719223   76.154602
H   71.816360   12.049245   58.812225
H   64.701637   59.840008   93.465271
H   23.236555   16.843433    1.484263
H   34.249821   18.019869   64.343277
H   38.598282   84.491005    5.300203
H   25.259193   87.469971    2.184101
H   10.091217   51.668076   32.763535
H    9.466313   48.158760   68.894623
H   88.237984    5.172335   82.776459
H   25.254169   33.090439   78.731667
H   20.503244   57.770103   53.192299
H   69.441391    4.993426   13.320362
H   50.494946   23.103218   55.616180
H   35.394905   67.420044   87.116089
H   20.055027   49.443077   37.555283
H   40.898041   34.351498   57.384560
H   26.479404   94.669296   70.383034
H   72.774040   50.491814   12.469113
H   19.489403   50.160332   31.070711
H   38.762329   27.060984   72.609146
H   69.258957   32.895805    1.464890
H   27.750374   95.312134   58.627361
H   27.863995   54.405079   25.592312
H    3.923341   56.939995   90.680443
H   25.093031   77.351784   87.521507
H   44.808228   52.208214   76.941505
H   18.753628   64.006668   71.616905
H   60.450253   97.759109   14.130401
H   14.550055    8.535482   39.322807
H   61.094303    6.487500   44.987530
H    4.380015   71.883560    6.370875
H   86.367477   35.530960   80.304970
H   56.544521   54.212021   22.065954
H   32.026604   59.298164   16.579624
H   45.696598   17.686865   84.089401
H   43.109310   18.090239   13.651282
H   82.773949   33.615467   99.013008
H   27.376690   55.134644   71.068047
H   44.390488   13.988288   83.915794
H   85.917107   59.265820   48.940517
H    0.711266    6.524201   98.142792
H   58.429939   24.700783   99.341179
H    0.654185   37.365623   66.401596
H   40.848541   80.157143   72.893837
H   82.019501   66.909363    1.119278
H   20.081024   12.891493   68.964500
H   96.152382   74.766281   36.859360
H   61.917286   17.438074   41.712891
H   35.340858   72.884262   72.033859
H   59.083267    4.555893   27.596167
H   50.387291   58.262901   83.980476
H   29.204212   45.874851   42.886429
H   85.729668   44.270298   39.317036
H   41.637882   39.286583    1.922211
H   46.129250   35.489258   89.703186
H   40.619789    6.688139   93.616188
H    2.904673   61.921616   74.901718
H   34.493576   35.717567   15.265518
H    4.446064   87.843163   63.706413
H   37.617939   36.785419   34.482681
H   60.720245   73.723442   11.517509
H   85.658470   31.380892   92.085411
H    0.387453   77.162056   29.947283
H   35.471828   36.737843   81.423103
H   19.353985   97.805000   28.741009
H   22.666475   88.385269   21.441580
H   69.987427   81.520462    9.048230
H   79.235237    2.660715   74.021393
H   43.194847    1.032542   41.622417
H   74.153328   91.533073   93.941208
H   19.805172   18.901340   38.511368
H   48.713081   87.971138   95.961319
H   47.909752   47.913990   36.342827
H   74.244003   76.081673   81.465828
H   61.233646   74.228561   28.443872
H   57.822166   81.916702   54.109905
H    1.003046   25.151320   42.381378
H   51.667740   98.936501   60.799641
H   99.407570   59.774242   12.017831
H   57.817467   37.994144   47.364201
H   65.791962   70.131561   72.364990
H    9.131542   95.538231    8.629363
H   27.249918   69.136200   64.190636
H   36.558807   61.476795   66.514458
H   94.068100   32.030361   47.389736
