100
TIME:    3.848, STEP:  3848
H   57.097565   69.140137   95.623062
H   94.230400   13.376459   20.730330
H   45.898354   50.744286   78.173103
H   82.122482   74.112358   29.240652
H   60.704865   81.191673   61.369400
H   68.353767   97.039268   59.827156
H   51.295727   21.172573   91.371544
H   17.441086   21.503170   54.884121
H   59.036751   16.324020   57.870205
H   69.685051   71.634941   58.375427
H   42.323441   21.074909   69.089851
H    8.971756   16.570734   19.024126
H   98.491714   28.898193   42.668961
H   64.550499   93.215248   50.075344
H   27.307739   26.308273   65.804298
H   46.805145   75.168877   13.623522
H   14.673987   36.485767   23.686972
H   83.368370    7.572348   66.140320
H    5.202404   39.782310   66.088196
H   88.847282   24.099695   78.322380
H   35.930939   73.137329   52.800209
H   31.291855   49.192261   91.585556
H   34.367683   63.326683   22.254604
H   61.520607   82.832397   21.286907
H   91.958160   80.993942   64.958168
H   29.012396   12.952647   28.497873
H   30.261145   82.520828   76.321205
H    7.859233   36.051331   93.965019
H   94.841446   98.212967   75.275429
H   48.542221   95.601372   89.293884
H   67.500221   67.112251    4.937431
H    8.722280   46.194153   43.035408
H   41.405491   86.944633   44.455185
H   40.689148   21.076393    9.641445
H   85.119827   68.040794   59.043327
H    7.130495   86.766144    7.404276
H   48.871918   63.613754   11.672580
H    4.948373   88.529793   93.984749
H   82.647583   97.577507   71.412529
H    0.755231   51.946907   40.786991
H   72.268326   88.218399   33.002911
H   85.784805   84.558685   83.583878
H   44.385914   86.575256   79.418327
H   33.637604   77.260834   56.970581
H   22.870504   80.068298   85.394226
H   28.443172   36.311512   98.792213
H   71.797165   34.105797   62.403847
H   56.444920   35.003113    6.670331
H   77.509872   13.758774   90.975494
H    6.581569   89.305733   14.530819
H   43.251041   98.143532   93.989517
H   92.138870    6.673254   21.447529
H   88.693886   44.320740   79.384163
H   87.582726   44.423500    1.618920
H   34.410233   95.816833   33.075382
H   98.380936    8.486441   61.631805
H   40.197857   78.514183   21.964392
H   39.525871   13.491369   14.439241
H   93.760933    1.355508   16.069691
H    5.091413   23.557936   54.164314
H    2.435024   99.623436   14.376108
H   62.341576   92.125443   21.243889
H   35.300831   44.702812   69.601555
H    7.274276   62.726669   22.666370
H   85.056480   53.511272   53.916737
H   64.956429   50.977303   73.707596
H   78.836075   81.397095   52.844036
H   14.558256   37.609024   50.159252
H   48.687004   73.293594   18.892101
H    8.347277   41.686066   93.630341
H   99.840141   33.582375   15.988457
H   56.681145   23.817688   38.354252
H   56.094864   27.968563   63.088585
H   45.502834    5.869913   74.519127
H   47.698269   34.124630   93.102089
H   16.625132   54.194351   37.008038
H   16.328058   93.027390   59.103001
H   12.766368   99.108742   26.950274
H   46.037445   42.215939   60.618256
H   10.812122   99.382866   89.412651
H   86.176132   69.090988    9.975102
H   30.044586   69.357925   65.010132
H   61.262066   71.487793   96.402985
H   14.886854   41.440987   11.962089
H   64.963669    8.189077   74.732010
H   62.733524   50.399010    9.000037
H   24.153952   23.571983    7.030848
H   17.896120   97.214241   55.725075
H   35.541611   79.921928   96.719124
H   26.123388   50.959816   61.771774
H   81.498596   81.211998   14.724526
H   63.009361   84.893120    6.848106
H   32.117653   42.976730   16.576273
H   19.151226   46.642853   86.269279
H   90.059975    5.048474    4.510600
H   11.750655   43.777473   68.694695
H   57.166107   88.509575   15.886988
H   20.991064   49.001099   94.463142
H   25.403404   53.437511   22.726334
H   78.224525   79.886604   27.049650
