200
TIME:    0.807, STEP:   807
H   26.893785   60.593243   25.034925
H   33.017761   41.155712   12.915506
H    6.253859   93.955650   73.275993
H   36.954987   83.600990   29.672787
H    9.190159   98.099777   45.506405
H   71.173096   37.425724   48.767033
H   11.574042   54.901825   60.626087
H   15.594779   13.369632    4.946492
H   10.454479   79.005898   33.887459
H   90.901733   66.956177   73.707726
H   31.956503    6.706277   10.879402
H   33.122421   57.156887   39.758770
H   25.090488    5.825987   38.053123
H   77.604584   55.599140   69.587975
H   92.247269   76.309387   41.583500
H   12.773520    2.604531   42.091618
H   10.879842   34.273819   87.902840
H   23.098635   10.424940   33.425957
H   83.890526    9.174777   50.830593
H   91.860138   71.918114   15.490980
H   64.889664    5.062253   99.863960
H   77.406151   70.486961   48.724739
H   78.026184   58.418907   35.531357
H   20.617918   93.228592   89.808151
H   27.891151   35.507854   25.178272
H   18.191736   87.499702   88.229874
H    9.876106   70.173790   71.879181
H    7.523146   93.519394    2.223206
H   34.949539   39.295479   35.018261
H   67.427315   35.953827   79.012421
H   12.621228   75.137703   16.888033
H   21.615349   76.795395    7.563099
H   13.423279   21.185875   80.104866
H   77.660942   64.196518   48.200859
H   20.778290   66.372116   29.905674
H   14.540015   36.994099   85.978256
H    2.538278   62.191124   90.211586
H    4.869011   59.422165   89.674446
H   32.085472   26.097475   57.035046
H   84.645134   37.356846   41.547943
H   80.673019   78.736702   20.344288
H   41.561264   31.217171   23.018080
H   66.492813   74.756744   71.382278
H   36.018112   90.772362   39.026543
H   48.150219   93.594292   64.825264
H   33.080730   99.082428   48.854401
H   90.659042   98.433273    8.610217
H   76.311981   65.541954   27.264175
H    9.008285    7.235522   61.575127
H   41.826920   20.360254   81.725166
H   64.720184   63.319504    5.398242
H   99.463814   45.457134   75.732018
H   67.470055   78.207542   15.337536
H   13.967778   94.149048   90.099670
H   53.198990   63.775032   72.436005
H   98.037407   58.380962   97.214844
H    3.812355   18.891090   43.572422
H   73.603317   71.760307   95.069130
H   16.216896   85.430557   20.839832
H   29.989426   92.805336   56.512657
H   48.583187    4.314083   25.670183
H    0.127257   17.768064   53.413025
H   87.068016   36.951820   65.755936
H   37.864372   65.961273   16.327061
H   80.462975   84.531815   41.115589
H   16.497501   38.589195   43.055038
H   64.995705   11.201830   97.549568
H   94.166237   92.739037   98.497177
H   36.690506   13.515439   54.803192
H   41.973099   51.512428   50.952312
H   58.216427   86.398872   88.447830
H   16.205088    8.918398   40.795845
H   95.489395   35.465511   80.509529
H   26.337658   96.501709   77.079689
H   86.049118   10.049989   40.952400
H   67.645355   99.059082   59.172367
H   93.031052   51.058262   64.125420
H    5.554477   16.294701   28.579002
H   15.843239   54.952080   22.373707
H   59.731422   87.504738   67.372040
H   67.432892   20.519173   92.715744
H   51.568359   58.392990   70.328819
H    8.787573   19.885815   73.690018
H    6.184258   80.400261   12.331179
H   18.717236    5.319659   41.713764
H   40.640972   65.935898   15.979695
H   61.267521    3.965611    3.071235
H   70.616295   97.441422   32.828152
H   83.040756   73.437248   79.212708
H   20.604198   11.462352   48.627605
H   17.475008   39.787514   78.232506
H   80.105911   93.510208   10.739658
H   74.195518   10.467386   79.581367
H   34.602585   74.063141   84.673462
H   39.491623   49.256439   91.554688
H   45.791267   40.386250    2.402640
H   86.996986   94.667183   22.748459
H   92.682129   37.481853   54.240009
H   24.170082   64.098167   54.890614
H   77.063080    7.140422   27.388834
H   35.163784   96.103333   95.639046
H   11.655689   85.234764   62.737000
H   34.932777   16.448238   38.425873
H   49.120613   68.986343   12.679132
H   24.587120   20.021427   43.470306
H    9.870590   99.012749   17.344490
H   91.143509   36.904079   53.342407
H   61.409950   56.044300   96.816872
H   87.206024   32.932507   26.549931
H   22.580793   20.154867    8.312307
H   54.654499   91.139618    1.194777
H    8.760394   77.603455   96.969681
H   47.246204   86.854301   81.602325
H   61.303490    7.173547   60.333096
H   44.928917    5.578999    6.891809
H   90.899124   89.211205    4.513363
H    9.262688   16.426666   90.790024
H   37.894413   54.904808   22.644737
H   40.395000   79.001198   55.517349
H   85.745804   57.991329   70.494751
H   46.472359   25.527264   68.940231
H   93.824791   14.048214   64.866432
H   45.906136   97.908829   40.849770
H   95.723747   46.915524   93.035240
H   59.950325   94.913849   74.060501
H   68.495140   77.865334   14.583647
H   81.292961   51.837357   49.157227
H   63.026413   92.016960   39.791309
H   99.445343   31.959595   71.968903
H   95.227425   21.461901   76.161270
H   71.497116   64.940643   25.079609
H   59.936569   91.675003   22.698238
H   90.586281   10.180386    1.593401
H   73.118217   27.540215   56.685307
H   32.436260   91.117844   30.362190
H   47.256477    0.899158   75.328354
H   69.831429   88.009361   83.564941
H   96.054665   46.517342   74.239502
H   61.133652   52.262947   71.415985
H   43.755081   81.896980   79.702682
H   78.688210   46.394611   33.225632
H   31.136053   58.238590   59.464577
H   36.778461   67.196480   80.259590
H   31.731926    6.003209   87.520210
H   66.953606   50.962532   67.609207
H   66.715393   71.743988    2.690487
H   58.141441   94.294746   43.222069
H   27.170166   52.312790   65.571922
H   80.343109   41.119045   92.307854
H   27.536337   94.865112   68.778557
H   56.235561   70.939331   47.063751
H   57.655338   91.420364   30.383831
H    2.515991   10.637516   83.560936
H   24.898157   14.157514   61.940720
H   36.096230   68.853729   71.010529
H   80.334045   44.934811   71.505943
H   65.246353   77.888176   87.469528
H   54.107319   27.562599   23.007788
H   86.431107   99.597809   81.577072
H   57.322815   33.809082    0.000183
H   59.525501   61.374146   68.340240
H   16.982113   20.117956   30.631954
H   89.625893    9.848810   36.996292
H   32.087379   36.836411   46.940853
H   53.525223   41.327656   15.395720
H   21.682585   46.398270   59.202339
H   65.136353   88.396126   58.232491
H   24.127525   56.729870   71.458908
H    1.777696   26.326309   35.518078
H   52.348125    6.180891   84.018372
H   68.533020   12.376763   35.928490
H   26.575115   44.386776   59.199276
H   48.628201   53.089989   74.470230
H   64.243988   60.976543   87.394234
H   45.084686   90.771240   72.571106
H   18.411156   50.726055   23.837475
H   29.592964   70.634224   10.625744
H    6.755246    9.741592   72.130356
H   61.100830    8.198328   62.503777
H   59.329128   60.537270   94.383530
H   71.066017    5.508351   28.536505
H   30.664177   30.798183   90.315437
H   39.527840   89.568657   17.300392
H   63.828823   26.269508   98.049614
H   92.855309   63.741829   76.060867
H   11.130280   41.008179   86.791969
H   51.095245   94.812668   11.828526
H   63.181068   91.241768   45.366779
H   90.197823   63.701874   73.023560
H   59.924274   55.188969   72.866653
H   74.905815   12.265224   75.252449
H   43.004772    0.337950   17.402353
H   16.694805   31.013159   70.795761
H   25.198074   86.159737   44.740059
H   65.436859   28.929682   19.961569
H   76.712418   11.774753   21.798197
H   13.230191    1.020157   22.604414
H   12.431066   86.137299   30.976147
H    4.352236   13.198406   52.658836
H    2.093962   15.782823   89.871391
