100
TIME:    3.310, STEP:  3310
H   93.480865   18.477348   96.115616
H    9.196196   84.207993   86.793839
H   36.650658   12.038829   84.486000
H   82.032181   96.277275   58.732113
H   65.523682   38.068600   75.957199
H   76.694344   97.622124    6.545959
H   79.492577   84.844688   49.299248
H   59.726822   74.958450    4.280079
H   72.261818   68.050369   91.734016
H   84.387779   63.910057   37.306442
H   92.366898   99.427780   20.913862
H   29.507141   89.604019   57.319481
H   32.713615   61.447784   96.142235
H   91.189445   94.873512    9.131817
H   20.762932   74.364853   91.663368
H   68.436462   22.224518   58.282570
H   57.936653    0.902449   74.710709
H   71.875450   33.735481   84.791687
H   96.822350   17.211039   37.745533
H    3.343826   35.524258   41.692802
H   67.856628   26.696327   67.401276
H   79.713272   48.478058   37.401184
H   41.550758   67.702202   37.648209
H   11.506683   76.379944   61.245327
H   11.199954   23.659584   60.984901
H   31.481321   28.983023   78.924416
H   76.654404    4.883364   65.649208
H   53.253071   10.939301   76.183830
H   83.143295   49.400894    0.707569
H   27.912838    8.917407   46.523804
H   46.325191   18.869898   47.502281
H   74.752663   61.056961   92.840797
H    3.508793   26.306610   95.987892
H   17.956528   70.381020   32.305099
H   98.492661    8.709533   26.284401
H   60.346401   44.503139    9.261449
H   97.271400   83.315903   69.280388
H   27.183578   98.372658   56.017933
H    5.355112    9.298655   23.548475
H   51.427944    2.311646   98.457802
H    9.037062   69.755844   20.327864
H   34.137230   60.414734   58.307663
H   39.751804   83.349030   40.558315
H   67.993225   68.247101    4.368568
H   69.536751    1.297165   39.356869
H   35.384075   26.049976   96.608559
H   67.594040    4.846259   57.236137
H   56.416187   29.462824   73.381981
H   61.781570   58.314362   12.436156
H   95.299706   81.121132   52.157818
H   43.292088   50.084564   88.316940
H   65.992477   56.596649   56.767735
H   77.537544   41.201233   10.629211
H    0.044322   53.203270   77.877960
H   77.245987   48.664360   28.500307
H   97.707779    9.052877   79.946594
H    6.092317   94.037834   70.795967
H   79.586906   64.298981   28.298355
H   51.328659   78.624069   57.373631
H   40.592537   82.205719   69.466316
H   68.497993   24.642487   56.321201
H   81.436241   97.133072   45.588356
H   98.775780   81.414482    6.493851
H   70.332268   59.800079   37.274693
H   63.704220   96.479378    3.814660
H   98.006783   77.722969   41.896835
H   22.001179   62.795246   26.869631
H   51.721474    6.839180   24.439741
H   21.871559   11.950829   52.636135
H   97.447083   14.625610   94.763214
H   16.924618   70.187325   22.442963
H    1.043070   41.672760   98.964020
H   91.172897   54.578777   76.880363
H   57.348751   39.916145    6.485888
H   21.760401   33.357067   52.318638
H    3.905744   19.712217   73.207672
H   67.482399   39.657906   49.588505
H   87.490143   34.287510   97.237808
H   20.239943   43.796215   54.613205
H   37.196785   28.683640   35.761673
H   75.651901   63.525127   77.819901
H   89.677139   65.844376    9.997141
H   27.222502   62.506897   45.160984
H   77.872269   95.402557   61.098511
H   91.159317   41.842571   26.884941
H   75.113464   30.635433   71.639618
H   88.222130   62.688957   81.376831
H    9.237436   40.287659   61.319664
H   24.375660    9.877031    1.119637
H   73.690674   73.094315   42.541656
H   59.481445   52.161213    3.362940
H   23.199160   44.436058   96.595726
H   97.632141   26.833281   74.971825
H   67.152718   14.008198   49.994286
H   99.361031   53.240719   92.147881
H   67.314011   65.022957   96.482933
H   99.870514   57.634670   46.828636
H   19.016745   44.420349    3.073547
H   51.032616   51.118404   67.790550
H   44.807117   93.694527   78.877243
