100
TIME:    0.724, STEP:   724
H   68.361244   55.626808   98.483170
H   81.130836   43.999653   23.669859
H   92.203766   25.991177   14.838921
H   81.598129    2.820410    0.477579
H   88.686249   30.789314   46.074181
H   16.789452    0.425668   50.446156
H   15.026094   10.224810   47.070515
H   62.981323   51.236462   41.719101
H   35.830696   16.683884   54.514786
H   55.054787   26.780312   36.041512
H   32.910309   95.374405   70.009361
H   28.207165   59.981056   41.393517
H   97.209259   17.904587   53.168671
H   19.233418    2.845009   12.336185
H   89.307899    5.353911   15.969940
H   72.413574   48.411366   72.941879
H   65.858025   29.876266   39.273262
H   16.615616   59.492554   74.446579
H   56.538132    8.724612    1.507124
H   73.051369   90.352417   65.580772
H   21.313354   84.140900   37.593155
H   31.769764   45.055534   57.609173
H   76.077583   88.733971   11.635042
H   51.774094   45.364994   53.305069
H    3.690165   28.755863   41.904495
H   43.339252    6.037284   21.312971
H   99.647034   12.380666   14.333120
H   71.451225   90.233063   90.705093
H   26.913895   14.779082   22.948151
H   28.754148   72.920822   40.944149
H   44.581852   86.967537   52.120476
H   11.470907   32.508659   32.239754
H   21.355042   15.511030   63.020592
H    8.692687    7.372434   41.249718
H   62.775673    4.191245   68.813904
H   35.504425   41.359447   18.153151
H   49.239658   78.021339   65.513680
H   34.066269   45.702938   73.531319
H   18.171513   65.052727   72.735458
H   95.000923   44.404995   94.996696
H   85.764236   81.022926   59.400166
H   66.552177   44.352043   36.814777
H   17.477072   67.841553   53.767662
H   33.126511   24.904684   51.521492
H   93.853996    3.326834   18.062151
H   68.704796   76.814507   86.157463
H   43.724842   64.798203   33.809761
H   56.278080    2.837655   13.374907
H   86.193596   72.486862   15.592935
H   41.074383   41.769138   33.027199
H   43.489384   99.745598   61.050617
H   40.317345   96.556885   26.532524
H   23.897707   26.206726   60.822556
H   59.923702   95.390236   63.764606
H   83.122269   21.974180    6.549707
H   94.472122   11.771055   67.980133
H   42.149635   68.656227   24.845985
H   72.148132    8.514305   94.906082
H   47.376617   69.359253   55.902409
H   11.242888   83.436890   43.017296
H    5.370790   44.901070   57.945938
H   73.214966   21.206467   62.598122
H   23.341057   57.782295   83.888771
H   92.754890   45.732864    7.482275
H   61.060890    3.018914   62.986893
H   56.868843    6.280906   88.994392
H   29.481165   73.391632    2.016356
H   30.354286   58.943588    0.813987
H   92.985558   97.764313   14.823656
H   45.052361   84.558739    0.208301
H   99.041084   46.141972   53.464176
H   14.270264   27.497505    9.629065
H   59.785751   82.494270   43.184650
H   14.255294    3.562895   60.179131
H   97.079514   29.673864   56.282154
H   42.775524   53.975151   47.213161
H   32.689167   63.794060    3.845055
H   65.995163    3.379686   54.425144
H   96.254662   51.381687   25.761314
H   64.019211   69.525093   58.547913
H   25.049984   36.771770   23.260227
H   95.645119   48.955826   26.237720
H   63.604626   19.341394   98.857391
H   99.973480   74.115211   97.300697
H   17.076544    3.596369   77.568825
H   34.629131   35.647961   92.059898
H   15.509054   50.712227   58.066219
H   67.610138   47.328712   88.214546
H   70.707710   53.860771   22.276955
H    2.324876   79.494003   50.095043
H   53.651615   12.526117   48.751293
H   31.855623   49.957573   47.317833
H   31.736519   49.323425   74.925346
H   17.204691   57.149796   75.633446
H   44.074986   84.878052   32.722282
H   53.721024   67.141106   30.053566
H    5.134964    9.229241   95.550903
H    9.523437   22.402100   44.451904
H   74.222404   39.971172   84.405464
H   84.204300   60.108456   27.954657
