100
TIME:    9.375, STEP:  9375
H   83.329254   62.289406   90.562943
H   41.561020   12.880707   69.229912
H   40.918514   48.378670   13.291922
H   83.050171   46.401054   26.286478
H   11.191168   24.204575   11.511524
H   82.639526   91.051460    7.183184
H   61.624653   94.382210   23.590389
H   83.029785   99.659317   47.412888
H   23.172478   84.923859    9.963995
H   18.693888   50.996113   74.789894
H   28.215363   43.464432   36.699959
H   98.021782   93.611076   25.605988
H   45.937073   94.532692   93.446045
H   90.887970   76.179512   70.682579
H   94.474739   32.611610    0.058116
H   24.575054   91.757065   54.834045
H   70.225258    2.055142   26.831587
H    1.545657   38.651314   74.541580
H   91.286362   71.647446   57.271587
H   39.936031    6.725306   54.626183
H    7.950661   22.906591    2.790280
H   61.170727   56.529434   20.910400
H   60.572441   18.382345   64.120758
H   47.985546   48.980438   10.804754
H   94.281357   42.676537    5.773677
H    3.401614   49.728500    8.652357
H   53.662880   52.770535   85.980576
H   41.506279   94.033020   76.661186
H   15.021655   99.665672   14.010906
H   60.472023   58.808243   28.673813
H   85.021111   62.729176   67.658936
H   57.700520   93.491653   31.373344
H   30.719582   82.563034   42.370995
H   74.218018   14.559784   76.797844
H   47.637962   49.850929   95.434708
H   87.590454   19.722891   89.953346
H   78.983093   61.202400   47.178608
H   76.504829   87.386620   84.008842
H   49.351437   77.152245   35.804901
H   80.172852   34.527069   75.640823
H   94.537109   77.860458   63.215420
H   10.139988   78.367233   58.569866
H   91.968414   19.726738   78.638329
H   80.723427   70.008400   97.372139
H   43.443901   62.015430   58.357853
H   57.113075   41.724590   21.248308
H   14.987082   34.683811   15.461214
H   56.759823   91.929459   48.649036
H   39.069954   56.011883   70.503143
H   22.564779   73.431664   28.032509
H   43.482944   64.595955   51.296967
H   60.754147   93.808441   58.625710
H    3.328797   76.368164   58.388512
H   59.584251   54.245560   45.508553
H   94.343025   80.185349   80.077896
H    5.272310    2.672133   73.479660
H   90.586578   19.035088   47.628014
H   27.973780   91.533745   72.076439
H   29.665241   34.896873   91.766518
H   40.365124   48.382526   96.963295
H   51.085323   42.589939   83.450783
H   66.180840   40.680893   71.167610
H   10.528987   67.549828   90.598572
H   86.804504   92.832596   72.610321
H    4.431948   12.077007   68.621544
H   25.428059   76.214622    0.507543
H   35.395126   72.478424   19.687271
H   32.770508   53.703926   14.381821
H   24.150331   76.158630   72.250092
H   20.426361   19.527010   81.959396
H   24.326633   57.524166   49.696327
H    1.259278   40.313866   43.229244
H   95.724411   54.583263   21.373722
H   23.829945   56.075275   46.122566
H   14.074197   42.119427   12.120327
H   47.290054    8.421908   65.109421
H   18.232765   14.369770   57.012306
H   72.426582   37.719673   32.196251
H   11.079759   25.981388   22.282228
H   39.766106   98.318031   13.256523
H   94.346764   26.271036   40.314400
H   44.788109    5.274037    2.691801
H   10.862680   63.901402   22.770458
H   95.134377   14.398130    7.156574
H   95.846924   62.456169   38.952469
H   35.525944   53.414711   92.811539
H   93.289894   21.713295   70.579338
H    6.804338   54.879494   98.375076
H   50.243168   72.187355   51.515388
H   37.462872   23.562950   59.348175
H    7.686585   79.652435   31.444969
H   71.953964    0.569455   12.159387
H   86.409164    8.810438   43.987724
H   52.696815   81.895065   59.898983
H   94.501404    9.973621   31.512083
H   68.258148   25.523211   83.217850
H   18.459019    5.690828   98.022888
H   20.181391   50.334583   90.673851
H   62.109642   77.285713   59.784016
H   21.529221   38.056866   94.616043
