100
TIME:    3.688, STEP:  3688
H   67.917877   83.812988   95.769547
H   98.681084    4.701474   10.637718
H   43.148109   39.233055   80.050545
H   82.095627   80.704155   38.011211
H   62.137970   68.366966   65.707779
H   70.834236   97.212608   43.981209
H   59.680737   10.368288   78.859337
H   30.016769    7.661437   69.574821
H   62.969856   31.707321   67.941750
H   74.057610   69.337578   52.109558
H   57.206253   14.636986   84.502449
H   15.078934    8.550999   30.412676
H    8.669269   38.578369   58.571060
H   72.472862   93.708412   37.898830
H   25.361328   40.600021   73.494728
H   53.238251   89.163017   26.905382
H   27.540230   25.903492    9.121542
H   79.950401   15.353406   71.687195
H    2.710491   33.069664   57.658939
H   93.158806   27.497522   67.428825
H   45.425568   89.065063   57.142250
H   15.952499   48.979858    5.210999
H   36.503914   64.627953   26.832851
H   76.386330   80.913452   33.170452
H   97.680817   93.681931   63.776527
H   29.746649   17.719908   43.494354
H   44.058674   89.171219   73.147377
H   21.359415   28.583069   88.676933
H   91.362442   83.696365   82.838905
H   42.406967   99.561333   76.574158
H   61.203289   52.765064   17.596123
H   98.619911   50.614319   57.847420
H   30.134840   98.651176   30.041121
H   33.928894   35.739479   16.381557
H   89.096878   80.135521   49.300896
H   93.217216   74.197784    7.956491
H   33.526459   69.473129   99.065422
H   11.561227   91.457039   82.693245
H   89.400513    1.063646   86.917900
H   15.825405   66.925919   28.198065
H   83.203384   82.727676   29.233381
H    0.164689   77.378510   76.066788
H   43.007740   85.615784   67.860710
H   43.854889   74.580170   41.326965
H   36.749081   86.381775   71.702820
H   30.507381   33.259754   98.142799
H   70.547165   25.404163   60.866982
H   56.436375   33.355164   96.770500
H   72.832138   27.009506   97.357330
H    3.225856   86.871651   25.721004
H   43.263248   13.590824   92.302505
H   84.362991   21.520069   31.951679
H   85.376015   43.393005   88.676155
H   91.288780   47.034584   94.558502
H   47.149490   81.793396   31.714426
H   98.180740    8.654898   67.078583
H   30.055033   83.130882    6.746922
H   51.439934   28.601791   18.560829
H   81.141304   94.595169   28.353016
H   15.649579   11.259352   58.715096
H   92.342171    7.063973   26.850513
H   68.020287   93.614700   28.483879
H   24.438219   55.620781   80.573235
H   96.287468   61.856308   27.010853
H   78.706383   66.290596   39.016834
H   74.785530   58.931404   64.247147
H   91.672989   75.864868   45.119427
H   25.610542   28.458399   42.510326
H   40.712151   84.790176   28.927502
H    5.105700   33.637970   93.967255
H    4.921003   44.468605   17.908012
H   69.873825   29.127747   26.639442
H   66.526993   35.882381   67.190422
H   49.025784   15.995068   84.025963
H   39.984646   33.896358   80.973183
H   12.842427   43.939224   47.773418
H    1.801027    6.894897   56.273411
H    5.249278    9.570818   18.113604
H   38.365326   42.685909   58.832367
H   18.659004    8.096840    3.196784
H   83.046249   67.435715    0.412447
H   18.038971   68.313004   78.389038
H   51.138775   68.816895   81.163727
H    3.879164   27.749390   26.575211
H   72.754196   18.197384   90.242264
H   66.415588   44.521324   97.888977
H   13.467916   35.205284   99.401276
H   15.321047   10.024038   57.388893
H   32.221298   88.830620   98.027718
H   40.269863   57.543068   56.052780
H   74.950745   72.571861   11.345620
H   51.169762   72.861870    3.799242
H   21.861908   38.175705    4.203179
H    3.686340   36.937042   75.480705
H   92.826088   19.380718    0.834148
H   98.535233   50.095833   76.958855
H   69.866302   79.327446   25.089254
H   20.403906   47.638794   97.024178
H   33.025475   52.747814   36.128433
H   68.285561   83.993050   42.463272
