100
TIME:    9.992, STEP:  9992
H   41.603424    5.708126   89.998062
H   24.521496   46.316807    8.131919
H   51.524143   92.768852    6.048508
H   83.153732   20.980417   92.466690
H    5.662401   73.659851   94.782478
H   73.074219   90.383018   68.287834
H   29.289761   36.046173   71.840591
H   34.534805   53.036121   90.761192
H    8.005440   25.601749   71.127769
H    1.839306   59.855320   98.947945
H   70.823456   68.290924   77.266319
H   74.475685   24.536991   81.687813
H    6.592894   57.185547   32.130730
H   60.337357   74.277748   17.635296
H    1.969118   77.498138   70.383080
H   99.765198   37.792160    3.617155
H   20.609932   42.863373   82.999527
H   14.740371    8.628212   53.153831
H    0.898717   97.528381   89.792465
H   23.314426   93.621307   96.634453
H   71.336777   61.483883   86.041718
H   20.323120   57.348511   68.367188
H   52.334229   13.360371   46.511826
H   90.656967   56.361542   64.982803
H   72.213364   93.744370   10.328026
H    0.491009   31.539413   50.590565
H    0.457237   27.120707   98.219650
H   89.445808   22.832493   97.053368
H   28.437649   55.644291   84.845230
H   84.131096   43.537643   77.724098
H    9.302899   18.058060   18.843857
H   96.658432   76.441681   74.254601
H   74.181313   37.419678   97.955223
H    0.287259   58.015495   50.803932
H   32.282631    3.135379   32.974728
H   41.224445   68.052124   88.013924
H   38.161888   38.607185   95.795975
H   51.002880   76.098427   27.548836
H   23.305744   63.708092   76.013557
H   22.059071   76.765564   24.184050
H   52.368790   99.034058   77.751671
H   58.141853   80.793167   90.057365
H   97.278290   23.429058   23.205364
H   41.329723   80.364540   57.696880
H   89.891632   37.621128   11.136405
H   49.152969   53.492931   23.754965
H   19.811855   68.241821   21.385504
H   56.797482   98.284363   86.825531
H   57.103409    4.919456   45.846161
H   35.514664   82.827507   84.892616
H   46.919300    5.288269   52.454971
H   90.739883   36.555557   18.122980
H   16.126841   79.945740   22.552181
H   45.297485   44.176567   72.735786
H   45.217262   34.255745   85.321869
H    6.040783    2.023109   52.475525
H   29.701424    1.231182    6.309779
H   82.031204   33.266335   56.184471
H   78.329567   60.970810   44.399349
H   99.650871   95.805786   79.414345
H   90.007141   13.897238   35.348415
H   44.282310   34.937943   43.249603
H   52.450268   25.499704   48.313736
H   29.172482   96.193634   55.859329
H   28.921867   62.799419   26.080111
H   87.525787   45.541618   36.989880
H   85.891273   93.812073   49.476269
H   90.149849   88.990120   43.877991
H   54.903358   31.824936   33.552082
H   32.957291   50.515408   80.650757
H    4.731767   15.539446   42.296394
H   50.449631   19.827538   88.455170
H   55.495514   24.064989    5.552364
H   10.249279   17.027016    9.463278
H   43.794899   43.027943   58.901737
H   61.878090   47.966839   23.594822
H   74.269478   60.968281   67.955162
H    1.414208   97.377708   66.272972
H   40.665565   24.169064   29.169062
H    9.508845   64.707649   60.101509
H    6.425182   32.654186   77.191673
H   91.087517    9.279580   51.072479
H   49.889931   74.219887   81.530731
H   37.582737   67.196365   50.801971
H   65.804703   23.860718   79.141998
H   21.323910   76.078026   35.658131
H   34.498005   76.852043    0.000191
H   16.726383    5.507936   91.982513
H   63.047123   37.833214   46.469124
H   82.912079   98.176620   81.405762
H   32.937126   12.969562   44.474876
H   17.605715   46.973099   23.913607
H   25.959843   27.324392   91.701286
H    8.845738   19.065296    6.849757
H   83.834579   54.707924   45.690498
H   19.219864    1.159805   51.349182
H   69.484398   41.098007   62.538986
H   18.990435   80.864258   78.284142
H   32.717033   79.950066    8.102169
H   59.851646   22.224640   35.178928
