200
TIME:    0.137, STEP:   137
H    6.306162   62.816830   13.578341
H   27.046242   31.374403   85.715790
H   20.296556   64.629860   40.274895
H   14.370569   75.769875   47.193119
H   16.303747   81.118729   55.139393
H   92.969360   55.610577   68.598442
H    1.866970   55.377213   47.657719
H    0.580448   84.438599   28.728394
H   83.245514   89.050377   50.232101
H   14.487011   76.341667    0.135175
H    8.603524   92.393867   89.706772
H   30.351883   39.273624    7.834490
H    8.646167   83.589531   65.513145
H    9.272278   52.772373   37.302517
H   24.594784   71.151688   43.232021
H   32.302643   30.210228   56.544933
H   79.362000    2.894545   20.432859
H   39.008068   78.215538   45.354095
H   61.598431   33.430790   40.967579
H   89.728561   81.119164   41.463512
H   56.848969   71.616585   30.559368
H   92.322075   44.877373   74.543907
H   98.089584   63.290352   51.607635
H    6.438847   87.139381   91.910812
H   98.769562    8.561379   49.085667
H   18.746355   57.765511   10.358397
H   96.901329   56.730030   44.940552
H   92.146515   65.880463    0.460253
H    6.730446   59.660469   38.941486
H   97.703880   18.005108    2.188758
H   13.495967   47.146061   16.068884
H   33.799072   61.092270   91.067261
H   29.612015    6.769210   71.921043
H   99.835472   63.465546   36.489967
H   52.931293   94.057053   35.002560
H   36.425777   52.270397   78.295380
H   83.308182   76.652107   85.181679
H   38.009819   42.090965   19.798521
H   56.882301   50.088898   42.142124
H   91.070534   40.112049   67.719818
H   80.473663   10.035257   98.105293
H    8.212572   45.266735   42.885258
H   78.556412   90.148056   46.503658
H   37.510727   58.231770   15.064572
H   25.257874   73.152626   40.646950
H   42.509251   16.519072   41.567680
H   78.033157   31.258373   93.920540
H   92.623398   65.552177   51.350479
H   83.097008   32.660870   61.092072
H   65.803131   17.336687   10.070109
H   80.658447   71.799805   31.950714
H   25.075506   33.925152   61.326786
H   49.399258   97.369873    6.580678
H   23.939547   80.010101   80.177872
H   81.558670   78.675621   94.104477
H    6.626041   74.887497   75.275452
H    5.724432   16.355690   50.759464
H   66.283371   56.184978    7.162463
H   30.354565   72.487747    4.635314
H   45.485527   96.567543   68.898293
H   50.753101   17.385963   45.245831
H   88.086067   16.180883   48.276817
H   68.609688   23.072750   88.359848
H   21.630445   65.005386    1.367828
H   69.692635   74.543564   13.717710
H   42.780033   12.559579   31.011887
H   90.022560   25.334604   83.707100
H   97.918221   91.215752   85.232330
H   12.858846    4.461350   63.283493
H   45.829872   39.834763   50.988094
H   58.510349   74.810661   70.526230
H   35.035088   26.529205   45.485825
H   74.224747   23.882412    2.944588
H    4.509781   11.228662   57.574303
H   77.890854   99.204155   72.455772
H   50.710312   22.713020   63.550533
H   95.862930   26.115751   73.602501
H   30.370237    4.094364   51.489616
H   10.747482   25.104389   37.219715
H   69.828102   91.241386   99.146332
H   38.996540   31.842854    2.662499
H   22.107538   70.442444   91.041405
H   11.401566   12.536477   93.293365
H   28.032890   58.491539   90.494476
H   42.576069   98.234695   60.701153
H   21.765348   89.378128   29.926952
H   31.238874    2.569480    1.535195
H   76.188042   22.377808    7.557260
H   62.537365   71.794487   76.791489
H   23.960026   81.430420   55.998669
H   45.560486   34.003632   81.212624
H   84.772888   87.631760   96.120377
H   42.366737   18.023748   98.663322
H   64.646622   98.134109   66.276474
H   22.514971   58.319473   63.649948
H   73.537544   25.406429   33.904465
H   77.908394   17.841722   93.893227
H    9.726227   26.838175   47.618359
H   39.351814   70.809822   52.516232
H   65.413528   96.253571   27.225260
H    5.270797   77.578552   64.089668
H   86.742180   75.098274   66.432755
H   21.044302   40.934067   29.063402
H   16.926563   67.749313   86.072136
H   25.475277   28.826321   21.748161
H   83.345444   31.815735   48.713001
H   60.779102   28.817846   56.738586
H   65.357857   30.319698   22.724377
H   70.178970   41.389805   94.152016
H    1.058024   29.496489    5.033156
H   45.839382   96.961838    0.723383
H   81.858147   60.754818   89.337921
H   58.882977   79.079414   96.175766
H   63.573082   21.617899   77.610077
H   67.287468   77.679520   30.384127
H   18.241932    8.810568   74.287788
H   36.809765    6.992333   82.979355
H   41.293690   21.926712   36.037376
H   14.950688   53.846554   88.630249
H   68.064453   44.619137   45.500454
H   39.479561   21.074978   90.894958
H   22.733345   29.920025   45.158405
H   29.753180   26.166622   20.973656
H    5.594843   71.025574   22.375658
H   79.998390   11.502303   96.219696
H   43.948803   59.534058   27.520119
H   97.946861   48.709000   75.032623
H   77.681641   86.762138   34.132664
H   91.200180   56.212029   87.237534
H   62.752831   24.637541   64.746857
H   44.451141   88.863373   99.475151
H   85.653503   85.029800    6.898015
H   92.774086   77.583511   96.608971
H    5.971195   10.362084   48.439159
H   99.337807    3.232503   61.149925
H   65.101402    1.759041   85.199036
H   68.722191   86.302055   50.211136
H   90.339790   67.436531   84.825821
H   43.620987   42.893211   71.574448
H   43.392151   14.029938   98.319473
H   45.518421   66.097908   11.582848
H   61.979980   37.881268   43.845795
H   58.316586   54.865181    2.858323
H   62.432762   30.256250   76.417610
H   35.460453   73.183067   45.700489
H   42.166195   60.200939   34.779202
H   42.295189   97.228859   48.019394
H   45.464920   77.252747   69.415916
H   62.431736   69.092331   98.968391
H    6.166404   87.531609   93.849701
H   79.850746   59.560696   52.121773
H   29.451679    9.959686   51.380116
H   71.390846   35.689930    7.080537
H    7.187097   98.778343   78.497818
H    9.528198   51.158897   58.889622
H   60.444443   43.273510   50.892109
H   58.233105   57.794891   79.536179
H   44.581676   38.312492    7.311038
H   17.095907    2.122432    6.424578
H   64.834167   61.146423   74.288361
H   52.944195   88.593918   86.154495
H   48.440090   23.590075   36.436283
H   60.785717   39.060558   37.274879
H    7.493964   17.153831   75.605713
H   59.940399   18.593393    8.812497
H   10.139100   67.716148   62.864868
H   76.673447   99.232918   51.129791
H   23.542236   26.246281   43.753529
H   92.673401   28.505169   37.100147
H   21.772526   11.236996   91.563232
H   81.332703    4.408910   35.984718
H   49.721169   69.272522   57.141819
H   35.682835   81.880020   93.322159
H   72.491081   77.013351   71.858200
H   76.225128   95.811371    4.074182
H   97.727180   47.104485   23.187927
H   36.475861   49.703579   82.599274
H    0.817139    9.102631   63.563152
H   78.235664   23.773981   70.339516
H   91.200165   53.350227   84.932007
H   83.298302   81.498383   44.114109
H   17.150135   29.980312   65.855980
H   70.376831   90.272629    4.031446
H   49.238167   25.029579   73.401024
H   84.190987   92.801811   78.821182
H   97.104118   35.354645   83.438698
H   27.765705    6.288898   96.983109
H   95.369408   62.861740   21.922544
H    9.601183   60.714088   65.366241
H   47.740551   58.833607   64.401688
H   42.899811   34.432087   80.036995
H   48.497288   82.130081   25.936327
H    1.812606   15.073617   55.446766
H   36.903111   59.420025   31.237446
H   88.429260   58.855965   22.153208
H   75.076675   10.130704   30.977522
H    8.776628   82.750862   99.990250
H   31.902905   99.453262   49.871525
H   13.286839   11.323692   82.623589
H    9.082061   38.482208   99.179787
