100
TIME:    7.623, STEP:  7623
H    1.810232   22.955341   92.166946
H   89.948471   17.942432   58.760975
H   10.803339   22.332878   33.857632
H   82.756104   18.582954   22.319702
H   26.890356   83.774406   59.014206
H    9.804309   92.949532   33.677086
H   53.447643   76.079727   86.581680
H   20.733528   48.087696    8.274636
H   66.239983   53.373047   20.245796
H   66.548531   25.839983    6.189524
H   91.182144   72.970581    5.463923
H   64.894806    5.792255   50.315331
H   57.656334    0.576450   67.553169
H   77.635994   81.579659   37.354053
H   73.194954   89.108902   84.311798
H   95.018265   44.993591    0.264931
H   11.110823   86.173080   67.340118
H   64.082245   23.903641   35.274918
H   63.991566   98.145874   64.969345
H   87.140396   43.929371   35.341866
H   11.917084   97.322937   50.340580
H   93.204773   54.203629   70.109421
H   83.964165   32.624855   14.246835
H   10.770952   28.021456   40.923592
H   56.941841   81.618225   92.837502
H   11.664257    1.377237   73.524925
H    4.738722   25.597315   51.222248
H   89.335228   12.255561   18.747728
H   76.925514   40.709919   96.829521
H   93.293427    2.169977   89.395561
H   16.067930    5.625280    6.271528
H   47.078091   41.895100   93.564796
H    7.310287   10.747637   84.536995
H    0.191071   75.120277   50.606003
H   91.240135   82.501976   88.841034
H   35.291691   82.494675   95.460426
H   10.944234   25.365152    9.127881
H   48.918823   19.446507   60.374069
H   23.302303   15.324873    5.587291
H   45.191826   98.543106   37.796227
H   14.273634   17.747328   21.939054
H   57.789040   71.496750   69.126396
H   76.890778    9.215986   52.090008
H   92.589874   40.594200   26.072212
H   95.417229   31.127712    8.430496
H   79.725456    8.312579   14.130541
H    1.290135   39.403328   98.636726
H   56.652889   73.884415   40.245571
H   87.858711    1.114107   40.389633
H   85.786377   46.760372   50.532745
H   42.978161   33.692474   33.783768
H   75.606232   56.381634   73.634277
H   66.997246   66.209473   60.138557
H    0.164031   82.828125   68.198318
H   33.840775   26.647907   65.187393
H    3.090196    4.515067   33.121887
H   79.516556   69.587944   80.998131
H   58.431320   56.989189   17.203848
H   91.483147   60.867939   26.268322
H   55.978325   13.716687   46.794334
H   40.565685   24.067196   20.047379
H   28.362770   56.988266   50.438583
H   91.585930   87.102936   10.738464
H   66.498772   83.288773   20.173855
H   34.892326   52.008587    5.465469
H   33.054352   63.311424   96.915100
H   75.960785   11.910046   35.101360
H   53.793037   53.505119   30.626083
H   36.831688    2.046171   82.131683
H   84.843925   31.527956   85.675339
H   79.967445   76.733139   70.708778
H   45.531628   98.485741   14.809421
H    9.956961   41.247448   66.298645
H   62.392872   66.958557   50.220490
H   29.678148   39.539654   79.282730
H    5.867386   96.135277   82.997902
H   59.113972   66.011543   25.936033
H   90.122726   52.272289   35.429607
H   27.064001   31.127567    2.729015
H   25.685749   93.758080   64.192940
H   60.047813    8.145791   35.599197
H   13.320750   93.906921   49.263607
H    0.045906   34.601597   55.919884
H   74.598808   64.475830   67.173027
H   81.153198   72.055565    8.788621
H   75.849350   89.059647   71.147430
H   76.277718   49.098274   87.037346
H   78.627831   95.073730   16.539284
H   13.882417   69.735847   65.844490
H   92.362946   95.643692   96.721725
H   35.987293   85.051445   94.445602
H   42.323704   68.801849   78.773933
H   74.102524   56.248417    8.502872
H   83.999428   75.651451   40.805920
H   24.795399   66.908646   91.255493
H   23.550171   94.708618   73.710991
H   57.524345    5.148130   98.782661
H   23.563166   63.643650   25.850088
H   45.570824   69.720161    6.530415
H   12.705902   83.014725   63.393490
