100
TIME:    3.850, STEP:  3850
H   56.962311   68.956726   95.621231
H   94.174767   13.484896   20.856489
H   45.932732   50.888176   78.149635
H   82.122818   74.029961   29.131025
H   60.686951   81.351982   61.315170
H   68.322762   97.037102   60.025230
H   51.190914   21.307629   91.527946
H   17.283890   21.676189   54.700481
H   58.987587   16.131729   57.744305
H   69.630394   71.663658   58.453751
H   42.137405   21.155384   68.897194
H    8.895416   16.670984   18.881769
H   98.364487   28.777191   42.470184
H   64.451469   93.209084   50.227551
H   27.332069   26.129631   65.708168
H   46.724731   74.993950   13.457499
H   14.513156   36.618046   23.869040
H   83.411095    7.475086   66.070984
H    5.233553   39.866219   66.193573
H   88.793388   24.057222   78.458549
H   35.812256   72.938232   52.745934
H   31.483597   49.194916   91.415237
H   34.340981   63.310417   22.197376
H   61.334785   82.856384   21.138363
H   91.886627   80.835342   64.972939
H   29.003218   12.893058   28.310411
H   30.088682   82.437698   76.360878
H    7.690482   36.144684   94.031120
H   94.884933   98.394424   75.180885
H   48.618912   95.551872   89.452881
H   67.578926   67.291603    4.779198
H    8.848557   46.138901   42.850258
H   41.546375   86.798302   44.635361
H   40.773651   20.893105    9.557194
H   85.070114   67.889610   59.165108
H    7.304407   86.923248    7.397373
H   49.063736   63.540512   11.830169
H    4.865712   88.493202   94.125893
H   82.563171   97.533928   71.218712
H    0.566854   51.759666   40.944355
H   72.131638   88.287033   33.050030
H   85.605057   84.648438   83.677841
H   44.403141   86.587250   79.562798
H   33.509888   77.294342   57.166138
H   22.697020   79.989380   85.565369
H   28.417370   36.349659   98.800331
H   71.812790   34.214561   62.423058
H   56.445026   35.023712    6.794078
H   77.568344   13.593140   90.895721
H    6.623515   89.336159   14.390942
H   43.250889   97.950447   94.010605
H   92.236069    6.487667   21.316227
H   88.735359   44.332336   79.268013
H   87.536400   44.390862    1.707169
H   34.250992   95.992126   33.092396
H   98.383438    8.484335   61.563721
H   40.324642   78.456474   22.154608
H   39.376945   13.302492   14.387724
H   93.918678    1.440016   15.916149
H    4.959435   23.711668   54.107430
H    2.561188   99.530418   14.220175
H   62.270592   92.106827   21.153389
H   35.436619   44.566338   69.464409
H    7.411614   62.737549   22.612064
H   85.135857   53.351528   54.102985
H   64.833565   50.877876   73.825851
H   78.675613   81.466248   52.940594
H   14.420099   37.723404   50.254864
H   48.786690   73.149887   18.766659
H    8.387796   41.786667   93.626129
H   99.776634   33.446297   15.964462
H   56.516243   23.751312   38.500690
H   55.964462   27.869640   63.037300
H   45.458797    5.743347   74.400291
H   47.794689   34.127483   93.253700
H   16.672419   54.322540   36.873470
H   16.509645   92.854050   59.138371
H   12.860332   98.977974   27.060732
H   46.133347   42.210064   60.640579
H   10.714035   99.273949   89.240349
H   86.215256   69.111679   10.094636
H   30.194656   69.370987   64.842896
H   61.388607   71.521179   96.593475
H   15.024450   41.612129   11.779422
H   64.866287    8.063974   74.538132
H   62.687489   50.472481    9.138927
H   24.287527   23.426567    7.126217
H   17.928308   97.054115   55.704277
H   35.583115   79.810570   96.702766
H   25.946562   50.877525   61.843262
H   81.580444   81.320000   14.766763
H   63.157356   85.043510    6.886217
H   32.245857   43.036743   16.730936
H   19.344540   46.764175   86.404137
H   90.025398    4.869323    4.556556
H   11.915847   43.698494   68.591393
H   57.007355   88.624352   15.771963
H   20.998404   49.018127   94.431129
H   25.308128   53.446133   22.558807
H   78.348763   79.835274   26.856985
