100
TIME:    2.506, STEP:  2506
H   47.851471   92.208427   96.851700
H   31.561348   40.616264   36.077656
H   22.830679   54.195511   93.920143
H   81.897232   29.403772    2.800013
H   72.725037   73.624466   97.757553
H   89.158699   98.493156   26.923174
H   21.631367   30.554718   86.425316
H   22.919640    5.403477   78.101753
H   92.025673   45.351761   42.343464
H    6.358995   52.365807    5.820506
H   67.153015   67.076889   98.359192
H   60.195709   49.303421   14.549314
H   83.855431   10.090961   76.052483
H   30.998711   97.351662   47.948475
H   10.982216   46.181000   30.310690
H    0.762878   92.545074   25.021910
H   22.588776   47.722786    1.518780
H   54.696838   72.833809   12.666130
H   84.296654   83.483170   95.389252
H   25.003098   52.595272   86.952797
H   15.567032    6.736527   89.226166
H    2.633011   47.410736    5.869211
H   52.285316   74.241081   60.650833
H   86.206940   66.737244   20.956116
H   39.954338   87.425110   55.051422
H   35.168308   52.936810   54.283760
H   45.983917   38.305660   49.695225
H   21.093187   73.411324   49.607876
H   65.661301   76.456001   38.711632
H   97.085213   28.816757   82.608635
H   14.682279   46.772610   11.112793
H   23.987404   83.273613   67.271095
H   46.877262   85.131691   23.557226
H   83.985344   44.062759   66.177231
H   18.479195   69.485718   77.325829
H   90.441055   81.344292   12.025308
H   20.157352   12.760546    5.928342
H   60.411636   13.087139   99.283852
H   39.294296   26.814386    1.462584
H   27.156576   77.580330   35.200855
H   63.982174   42.169819    1.385102
H    6.396193   24.328217   20.535219
H   32.826481   78.527679   82.484154
H   19.334047   54.772560   25.757708
H   39.278660   33.016933   70.556129
H   45.756725   10.714893   93.345253
H   61.310169   61.122589   49.513390
H   56.373249   21.184946   23.634972
H   38.282089   24.902676   44.509315
H   78.443382   68.889870    8.392506
H   43.353428   27.705694   79.839706
H   26.919088   31.200737    9.546818
H   60.864090   36.539368   57.326202
H   18.661114   66.322884   42.398712
H   41.258011   78.194885   21.670118
H   96.701797    9.898264    7.316650
H   55.120129   17.237740   94.328804
H   39.454681   40.227097   49.007401
H   87.919960   44.653790   19.095881
H   93.649216   20.407141   92.333992
H   17.780947   62.029446   19.008793
H    9.970692    4.617525   81.966278
H   44.213451   36.263313   61.636887
H   15.121473   55.426514   59.105717
H   31.788864   60.694996   28.939753
H   47.397621   17.692207   94.359627
H   86.507149   35.001942   88.051468
H    7.259211   60.858093   86.003891
H   81.801201   69.721153    3.059568
H   81.155090   74.188545   96.456207
H   42.456276   24.891607   32.088757
H   67.335022   68.355804   40.099350
H   43.596130   94.350395   97.490715
H   75.041862   90.794724   54.269524
H   82.995506   32.210003   91.369370
H   84.901482   68.185051   27.307934
H   94.483307    9.343092   35.369816
H   49.716763   86.859642   52.838131
H   81.684113   46.157818   45.639114
H   76.626350   72.473083    5.027103
H   59.922649   55.207378   29.766029
H   29.351532   60.593643   77.227150
H   76.356277   49.085632   68.584015
H   22.560154   26.603243   34.534393
H   30.308582   92.132080    4.823890
H   93.613708    1.103099   15.807639
H   34.524803   21.146317   43.039124
H   96.296814    4.658108   69.684517
H    7.688754   54.641899    7.697595
H   44.774662    6.170166   13.801887
H   26.578491    8.749017   86.383865
H   63.709675   83.974907   81.272911
H   46.073460    2.722642   12.786037
H   89.441994   65.241661   95.785652
H   13.263264   25.257256   73.672173
H    0.906885   96.772713   38.010925
H   63.687820   11.494622   93.066978
H   16.066275   37.574768   15.938148
H   89.333519   47.652676   35.134361
H   94.872360   14.334635   56.322174
