100
TIME:    3.853, STEP:  3853
H   56.759430   68.681610   95.618484
H   94.091316   13.647551   21.045729
H   45.984299   51.104012   78.114433
H   82.123322   73.906364   28.966585
H   60.660080   81.592445   61.233826
H   68.276253   97.033852   60.322342
H   51.033695   21.510212   91.762550
H   17.048096   21.935719   54.425022
H   58.913841   15.843288   57.555454
H   69.548409   71.706734   58.571236
H   41.858353   21.276096   68.608208
H    8.780907   16.821360   18.668234
H   98.173645   28.595688   42.172020
H   64.302925   93.199837   50.455860
H   27.368565   25.861668   65.563972
H   46.604111   74.731560   13.208464
H   14.271909   36.816463   24.142141
H   83.475182    7.329194   65.966980
H    5.280276   39.992081   66.351639
H   88.712547   23.993513   78.662804
H   35.634232   72.639587   52.664520
H   31.771210   49.198898   91.159760
H   34.300926   63.286018   22.111534
H   61.056053   82.892365   20.915546
H   91.779327   80.597443   64.995094
H   28.989450   12.803674   28.029219
H   29.829988   82.313004   76.420387
H    7.437356   36.284714   94.130272
H   94.950165   98.666611   75.039070
H   48.733948   95.477623   89.691376
H   67.696983   67.560631    4.541847
H    9.037974   46.056023   42.572533
H   41.757702   86.578804   44.905624
H   40.900406   20.618172    9.430817
H   84.995544   67.662834   59.347778
H    7.565275   87.158905    7.387019
H   49.351463   63.430649   12.066552
H    4.741721   88.438316   94.337608
H   82.436554   97.468559   70.927986
H    0.284289   51.478806   41.180401
H   71.926605   88.389984   33.120708
H   85.335434   84.783066   83.818787
H   44.428982   86.605240   79.779503
H   33.318314   77.344604   57.459473
H   22.436792   79.871002   85.822083
H   28.378666   36.406879   98.812508
H   71.836227   34.377708   62.451874
H   56.445187   35.054611    6.979698
H   77.656052   13.344688   90.776062
H    6.686435   89.381798   14.181126
H   43.250660   97.660820   94.042236
H   92.381866    6.209286   21.119274
H   88.797569   44.349731   79.093788
H   87.466911   44.341904    1.839544
H   34.012131   96.255066   33.117916
H   98.387192    8.481176   61.461594
H   40.514820   78.369911   22.439932
H   39.153557   13.019176   14.310448
H   94.155296    1.566779   15.685837
H    4.761470   23.942266   54.022102
H    2.750433   99.390892   13.986275
H   62.164116   92.078903   21.017639
H   35.640301   44.361626   69.258690
H    7.617622   62.753868   22.530605
H   85.254921   53.111912   54.382359
H   64.649269   50.728737   74.003235
H   78.434921   81.569977   53.085430
H   14.212864   37.894974   50.398281
H   48.936218   72.934326   18.578495
H    8.448576   41.937569   93.619812
H   99.681374   33.242180   15.928471
H   56.268890   23.651749   38.720348
H   55.768860   27.721256   62.960373
H   45.392742    5.553498   74.222038
H   47.939320   34.131763   93.481117
H   16.743349   54.514824   36.671619
H   16.782026   92.594040   59.191425
H   13.001277   98.781822   27.226419
H   46.277199   42.201252   60.674065
H   10.566904   99.110573   88.981895
H   86.273941   69.142715   10.273936
H   30.419762   69.390579   64.592041
H   61.578419   71.571259   96.879211
H   15.230844   41.868843   11.505422
H   64.720215    7.876320   74.247314
H   62.618435   50.582687    9.347260
H   24.487890   23.208443    7.269271
H   17.976591   96.813927   55.673080
H   35.645370   79.643532   96.678230
H   25.681322   50.754089   61.950493
H   81.703217   81.482002   14.830117
H   63.379349   85.269096    6.943383
H   32.438164   43.126762   16.962931
H   19.634510   46.946159   86.606422
H   89.973534    4.600595    4.625489
H   12.163634   43.580025   68.436440
H   56.769226   88.796516   15.599426
H   21.009413   49.043671   94.383110
H   25.165215   53.459064   22.307518
H   78.535118   79.758278   26.567987
