100
TIME:    4.547, STEP:  4547
H    9.827576    5.038314   94.983109
H   74.898476   51.260094   64.810120
H   57.913483    1.033925   69.971031
H   82.239807   45.314445   90.926277
H   54.443985   37.219604   42.416107
H   57.514027   96.281990   29.050547
H   14.662502   68.373993   46.034328
H   62.501060   81.975037   90.703209
H   41.853996   49.117920   13.869097
H   50.582436   81.671547   85.745209
H   77.304169   49.200871    1.759811
H   82.294594   51.608192   69.268669
H   53.913620   86.623711   73.209229
H   29.939835   91.060738    3.267853
H   35.809929   63.871002   32.201687
H   18.699253   14.031931   55.600525
H   58.464455   82.719238   87.319695
H   98.303185   73.575111   41.903759
H   16.089443   69.107254    2.917134
H   70.011314    9.255438   25.913492
H   94.451302    3.548445   33.830917
H   98.305664   50.120193   32.059204
H   25.035027   57.641762    2.254304
H   96.575897   91.215790   69.374146
H   66.957306   25.559593   70.120461
H   25.818529   92.234329   62.838100
H   69.986824   53.465000   90.186867
H   48.878750   68.678299   17.070360
H   10.041141   61.631344   42.232491
H   75.345612   78.301292   44.861732
H   95.007561   29.794106   49.634773
H   52.857525   26.883553   78.325493
H   90.641701   35.801674    7.426625
H   70.223007   57.017303   80.193642
H   67.745087   15.201937    1.610098
H   67.900604   41.569492    5.132460
H   15.915812   38.015610   66.751144
H   76.055168   75.741386   43.310154
H   53.143757   82.346611    3.674514
H   34.917068   86.508400   95.782593
H   24.496208   12.203465   49.471050
H   22.962692   15.929294   16.423357
H   50.406811   90.766953   29.908773
H   89.002655   88.971985   25.316645
H   62.236065   52.488525   45.209980
H   19.425159   49.643879    1.631893
H   77.258102   72.119041   69.113960
H   56.482250   42.202591   49.920509
H   97.945724   55.866261   63.094673
H   21.241840   99.939629   65.639870
H   43.197712   30.660370    1.359408
H   26.107695   41.811787   75.560455
H    3.189784   48.373779   38.786457
H   71.391899   33.016327   32.462059
H   78.755890   57.076778   39.021618
H   99.255539    7.750720   37.836197
H   84.511780   58.344978   88.444908
H   87.476700   47.479805   96.434067
H   48.888222   30.891518   62.408615
H   58.962452   77.286057   34.283089
H   46.529205   67.113792   59.874863
H   37.532707   85.619247   89.616470
H   82.756615   97.003586   21.669029
H   55.274765   66.532608    3.686413
H   12.799878   97.682312   19.011465
H   22.015541   16.227821   15.037448
H   22.754366    5.565236   86.590927
H   66.273354   77.584793   83.575493
H   83.524155   23.067902   75.053436
H   22.508917   76.844238   92.158447
H   77.644417   86.021805    7.602430
H   99.046722    0.618689   89.531883
H   10.518244   93.394051   45.164551
H   30.111950   61.637722   32.986137
H   81.399910   35.121891   46.091763
H   33.151932   98.992271   89.974197
H   79.793472   32.442333   71.464775
H   45.606655   53.404148   65.555260
H   79.557487   40.162754   68.417336
H   76.531677   61.315914   29.193016
H   99.849808   76.322464   51.752193
H   82.492241   73.922928    6.559874
H    5.481424   83.161194   62.978207
H   62.974983    1.255347   48.118195
H   30.928717   64.468803    6.971766
H   46.644024   76.074638   57.540710
H   70.838570   72.748978   40.362106
H   29.145971   41.250298   48.456268
H   50.047226   41.002083   91.002205
H   64.323746   22.199234   86.761490
H   10.104697   18.957150   29.486124
H   14.729600   37.458061   20.167730
H   76.925072   63.951210   70.631027
H   86.712540   89.041962   33.399784
H   77.975517   42.437454   20.571724
H   69.485138   16.175671   32.590645
H    1.683242   28.623470   75.686707
H   23.556211   54.952667   83.274620
H   92.104645   56.450626   64.179176
H   21.643091   61.947186   59.714138
