100
TIME:    1.914, STEP:  1914
H   87.886627   46.497726   97.393692
H   48.028877    8.518431   98.734856
H   12.654776   11.605037    0.867088
H   81.797867   53.793663   35.250141
H   78.027527   26.173054   13.808580
H   98.336433   99.134514   68.296349
H   52.656658   90.579689   40.130150
H   69.449669   54.186474   32.456902
H    6.578224    2.270015   79.608055
H   22.535204   43.865562   82.640282
H   22.219406   43.256336   55.382671
H   82.788513   19.629351   56.688271
H   21.513195   45.907799   34.893066
H   60.311455   99.176369    2.895381
H    3.780817   99.061371   58.769661
H   24.567352   44.324020   74.162857
H   70.184723    8.572884   47.619110
H   42.045837    1.622676   33.191696
H   75.073753   58.649918   64.197601
H   40.951218   65.165390   46.646645
H   50.697159   65.673523    5.295471
H   45.874699   46.626198   56.282181
H   60.189369   79.055779   77.588089
H   41.210197   59.637150   64.925140
H   61.128166   34.376396   50.683868
H   37.882786   70.575821    9.773398
H   97.032143   62.916622   37.947544
H   71.043411   45.778759   30.038519
H   52.788986   22.744967   66.696495
H   74.384773   43.468613   35.545650
H   91.393074   93.683136   57.955357
H   86.608398   99.632744   22.075478
H    5.176640   28.444515   70.225189
H   58.972404   98.316177   91.117905
H   33.196358   14.236566   41.277161
H   38.969860   34.838528   14.060037
H   63.375572   34.442238   59.281010
H   84.881920   23.922466   57.505993
H   64.676071   39.649742   58.680054
H   82.915749   33.000744   88.623795
H    4.441391   21.857534   87.437546
H   59.601776   97.757942   92.723129
H   27.727240   74.977631   39.723534
H   57.137245   44.849586   67.873947
H   90.630241   56.372280   19.896353
H   53.394299   99.423409   90.942421
H   56.290150   28.990259   43.978218
H   56.341633   15.089792   87.005424
H   20.978987   73.931297   68.125839
H   66.031761   59.881702   49.796192
H   43.398594   84.858940   73.597763
H   98.150444   86.134308   48.412174
H   48.583450   33.106750   91.707451
H   32.368999   75.979378   16.276049
H   88.386414   26.296099   16.647657
H   95.961075   10.520426   27.469727
H   17.591684   34.319527   38.024849
H   83.536713   96.133591   64.255447
H   41.229538   19.639734   64.545746
H   32.714405   74.904877    9.171319
H   80.437088   89.562325   65.164055
H   30.979664   10.128908    8.751000
H    4.057583   76.632698    2.250217
H   74.471130   52.206177   75.177162
H    8.291244    7.975578   73.808929
H   83.765297   47.122383   59.355968
H   34.005234   14.535373   59.470409
H   48.152763   27.001316   57.702869
H   52.296967   12.258484   40.190163
H   69.158997   44.412140   97.702789
H   61.254372   65.172249   39.192020
H   16.149340   88.003021   96.755455
H   82.195007   23.632397   12.670200
H   88.067741   28.257483   89.453850
H   54.452095   31.367094   46.492413
H   70.909050   30.241682   67.140465
H   40.733795   60.655205   24.898802
H   21.903530   25.568499   20.142452
H   53.297134   47.895359   39.032646
H    5.659174    4.712942   56.028358
H   48.337566   49.082867   94.384392
H   84.932693   56.727432   26.730303
H   38.901592   39.203308   12.198841
H   81.836311   75.945045   88.607147
H   59.133667   29.162285   62.211609
H    7.237882   79.360054   74.697182
H   94.986443   64.189529   14.810314
H   86.766785   52.055054   75.845161
H   95.402534   87.604057   12.540556
H   97.114700   30.528198   92.639137
H    2.351308   76.781235   73.881912
H   19.903902   39.456539   69.990440
H    8.090263   84.981918   66.987381
H   32.223179   29.330488   55.868851
H   23.500141   78.285461   60.068169
H   52.010147   20.149454   68.588318
H   10.678281   77.521095   27.113556
H   13.892695   32.534241   25.411713
H   17.534416   45.100796   84.724014
H   58.107224   29.539898   13.340080
