100
TIME:    5.419, STEP:  5419
H   50.857338   25.071617   94.184769
H   50.815224   98.510300   19.790409
H   72.906265   63.768509   59.736202
H   82.386169    9.387058   43.129425
H   46.633560    7.114179   18.773804
H   43.988819   95.337288   15.407766
H   68.959007   27.254292   14.225938
H   93.963577   57.413380   10.638703
H   20.418571   65.278625   58.981361
H   26.752726   94.192177   19.891256
H   96.192856   84.287903   17.764332
H   49.014130   95.317299    7.199065
H   98.269363   33.893364   86.562675
H   86.764671   88.372993   69.629280
H   46.414543   85.980759   90.285767
H   83.637192   37.763565   83.216522
H   88.343300   40.395077   66.701294
H   16.949308   31.148434   11.675528
H   29.671200    5.685434   48.855022
H   46.518463   90.735634   85.283363
H   42.705574   16.738411   10.163723
H   81.905151   51.277786   57.800369
H   13.392198   50.549843   77.306030
H   15.554405    1.655245    4.610534
H   35.768829   56.406860   76.560402
H   21.843462   66.461258   80.839157
H   94.792252   17.215076    7.486746
H   75.301765    9.380287   45.897079
H   29.002235   40.745792    1.013910
H    8.782261   56.719505   14.183640
H   29.326447    7.988173   80.644905
H    7.916232    2.792915   97.600105
H   52.064983   72.002586   85.983269
H    7.066718   77.103752   43.456703
H   46.070160   49.285294   54.706352
H   43.701740    9.867805    2.389484
H   99.552032    6.079315   35.461224
H   40.014553   59.786137    4.846158
H   16.333637   63.346123   19.170870
H   52.783665    4.874208   64.391258
H   64.901398   42.121254   70.014992
H   44.591637   55.066612   57.384899
H   57.917858   95.996078   92.894295
H   33.322117    3.600540   10.577493
H   86.597435   18.086731   19.829027
H    8.173853   66.275955    5.176455
H   84.070602   19.541683   77.483223
H   56.528820   51.183914    3.874948
H   23.433510   83.648193   28.307369
H   39.530476   13.211996    4.653137
H   43.131184   46.474243   10.551959
H   68.485771   60.897587   18.314178
H   21.277859   53.429932   88.142082
H   51.198120   18.785919   70.942039
H    9.325848   33.499996   46.439526
H    0.345062    6.833461    8.151260
H   39.792503   33.183968   71.379417
H   22.545544   65.129997   73.974106
H   17.662214   67.735176   95.463326
H    1.421686   44.311001    9.481331
H    1.534868   26.563828   91.888390
H    6.586428   77.502792   50.162842
H   41.956455   37.500656   61.873352
H   15.152171   71.282730   80.014603
H   47.412720   28.037220    0.216476
H   68.448265   72.878563   66.596901
H   52.792175   35.711628   28.692196
H    6.038337   27.456152   25.262136
H   26.984091   60.411552   20.361847
H   40.173973   20.701740   90.322266
H   49.955330   26.691849   97.142250
H   27.146099   71.678848   53.376381
H   53.662613   50.259209   22.804382
H   10.917240    6.450963   81.175224
H   23.443480   36.365971   12.194820
H   53.769058   54.880806   31.299891
H   58.965847   56.864063   86.886040
H   86.574799   96.384926   13.709981
H   21.374310   37.601414   78.143776
H   33.769180   13.819840   54.069519
H   16.913073   85.343704    3.870325
H   47.922012   79.613876   33.641830
H   60.640015   97.744202   46.022305
H   22.968836   75.874557   68.474243
H   88.468422    9.922473   22.441002
H   26.572430    8.102214   18.095200
H   29.077490    9.347486   81.942307
H   43.181419   71.440552   39.391121
H   68.142929   92.451393   83.870369
H   87.226257   86.323044   17.934099
H   45.790489   66.040451   47.901165
H   79.250023    3.040267   36.780502
H   32.821701   90.116859   38.064167
H   70.992714   41.937572   92.194054
H   62.900200   64.329674   40.608158
H   41.508789   81.741547   87.550385
H   32.467216   78.666069   25.537659
H   26.756224   62.377228   69.316978
H   50.564362   60.209476   91.138573
H   75.805252   39.573711   75.711700
