100
TIME:    4.075, STEP:  4075
H   41.746246   48.323029   95.415237
H   87.934364   25.681665   35.047340
H   49.800262   67.075844   75.509483
H   82.160583   64.760246   16.798014
H   58.671646   99.386726   55.214325
H   64.834602   96.793343   82.307182
H   39.399494   36.501377    9.123315
H   99.599327   41.140873   34.041035
H   53.456657   94.498657   43.580524
H   63.481483   74.894325   67.264496
H   21.208450   30.208805   47.224560
H    0.307235   27.949137    2.866560
H   84.033005   15.166775   20.109695
H   53.310646   92.515572   67.350433
H   30.069210    6.032183   54.892056
H   37.678177   55.314690   94.780212
H   96.419777   51.499371   44.351677
H   88.217613   96.533241   58.269428
H    8.737850   49.305878   78.048508
H   82.730309   19.279028   93.777611
H   22.460434   50.538822   46.639938
H   53.054565   49.493607   72.254395
H   31.336906   61.480507   15.759233
H   40.429863   85.554901    4.427379
H   83.839142   62.992760   66.634621
H   27.970675    6.189194    7.221124
H   10.686655   73.085587   80.824074
H   88.705261   46.646927    1.467743
H   99.777283   18.807922   64.544746
H   57.246613   89.983177    7.339714
H   76.433220   87.468681   86.977913
H   23.055037   39.923042   22.020866
H   57.395870   70.335976   64.905136
H   50.280258    0.273403    0.078765
H   79.477386   50.881401   72.866516
H   26.869513    4.597747    6.620820
H   70.643814   55.300766   29.559256
H   95.565788   84.376762   10.003656
H   73.066864   92.631279   49.414284
H   79.373573   30.695152   58.647793
H   56.754211   96.008362   38.350933
H   65.383347   94.745560   94.248749
H   46.341198   87.936508   95.815697
H   19.142599   81.064026   79.166260
H    3.179979   71.111053    4.819122
H   25.514576   40.641193   99.713570
H   73.570602   46.450584   64.583809
H   56.457043   37.341141   20.715797
H   84.146408   94.958771   81.921265
H   11.342486   92.759087   98.654518
H   43.233723   76.228416   96.382965
H    3.170652   85.609879    6.544787
H   93.401115   45.636963   66.201149
H   82.324760   40.719025   11.635207
H   16.336411   15.711237   35.006420
H   98.664963    8.247442   53.904190
H   54.587986   71.964241   43.553917
H   22.622795   92.053902    8.592007
H   11.663916   10.947197   98.642784
H   90.111160   41.006550   47.707893
H   16.754602   89.065941   96.677437
H   54.284904   90.012558   10.972365
H   50.712765   29.212788   54.035484
H   22.862005   63.961494   16.502636
H   94.065681   35.380299   75.055977
H   51.011391   39.692421   87.129608
H   60.623703   89.245941   63.803326
H   98.877480   50.591141   61.011166
H   60.001328   56.982819    4.654722
H   12.946264   53.104301   93.152344
H   92.632088   18.136757   13.265087
H   37.964798   16.284042   54.975033
H   41.294281   16.740833   57.267761
H   40.504650   91.505318   61.031303
H   58.641972   34.448490   10.310397
H   21.992205   68.743248   21.734070
H   36.938416   73.353317   63.117481
H   23.431240   84.266594   39.487297
H   56.922264   41.549168   63.151985
H   99.679382   87.020760   69.856346
H   90.616653   71.439407   23.541918
H   47.077553   70.840408   46.028809
H   75.623085   75.277130   18.023602
H   30.504015   60.865669   91.228928
H   53.910858   93.990410   52.726837
H   57.508465   58.737976   24.763733
H   39.314766    7.067238   17.855391
H   21.549505   79.039970   53.364532
H   40.252304   67.282722   94.862556
H    6.053369   41.619827   69.886856
H   90.788361   93.470192   19.518351
H   79.805161    1.962616   11.173834
H   46.668846   49.788185   34.130535
H   41.092319   60.412971    1.575460
H   86.135551   84.715904    9.726567
H   30.499908   34.813301   56.969917
H   39.147705    1.536671    2.831699
H   21.824095   50.933868   90.829674
H   14.589592   54.416019    3.712105
H   92.325432   74.060585    5.181947
