100
TIME:    5.990, STEP:  5990
H   12.243357   72.708672   93.662003
H   35.045113   29.453062   55.795185
H   82.725555    4.848979   53.031727
H   82.482010   85.861725   11.830062
H   41.519165   52.882339    3.292510
H   35.132290   94.718681   71.956749
H   39.034283   65.812447   58.878880
H   49.084106    6.813694   58.212826
H    6.382301   10.379359   23.037378
H   11.152582    2.391083   42.250462
H   43.079819    7.263266   62.761444
H   27.219139   23.938145   66.554314
H   61.832565   99.362633   29.825127
H   58.491737   86.613014   13.081142
H   53.358620   34.976212   62.840359
H   60.679047   87.821632   35.819061
H   42.427010   78.162209   18.681677
H   29.160254    3.365593   91.881386
H   38.563152   29.641138   78.938019
H   31.136070   78.607460   24.159632
H    8.821617   59.894764   94.665154
H   36.647476   52.035797    9.174408
H    5.767596   45.905937   60.969589
H   62.501575    8.486055   62.204998
H   15.347842   11.122246   80.777382
H   19.240522   49.580902   27.145157
H   45.554764   93.479324   18.816908
H   27.123272   36.032646   64.773117
H   41.417931   92.551910   74.021820
H   30.675629   42.587395   59.576309
H   51.800774   59.189610   35.469200
H   43.969425   87.014771   44.739738
H   92.284416   30.224955   37.423462
H   31.194149   24.774864   19.401892
H   31.877041    6.121181   89.477844
H   93.338379   54.591377    0.593746
H   54.317368   85.168091   80.453957
H   16.415604   49.335171   45.138615
H   92.231750   50.904289   63.836769
H   99.002747   51.420048    9.314749
H   25.877251   61.711914   83.467506
H   95.409302   65.092926   85.759392
H   62.836216   99.420197   34.138306
H   96.862778   13.184835   66.405479
H   37.067715   95.558273   68.690781
H    0.805465   77.166916    7.496230
H   88.531540   50.594864   82.963554
H   56.559315   57.065033   39.205158
H   40.122818   36.357834    5.529513
H   51.506176   21.902983   64.714279
H   43.090290   91.347351   16.571289
H   96.235939    7.911876   80.829811
H   33.122868   56.740784   54.980099
H   37.976494    9.468377   96.139366
H   63.862267   83.540085   51.296894
H    1.056297    6.232824   88.713058
H   75.991142   16.708122   25.686409
H   80.027985   11.205832   59.266953
H   62.694160   91.860832   51.629387
H   63.739120   88.199173   93.240746
H   37.554859    0.010141   47.367771
H   86.321114   72.188004   24.325127
H   80.722038   98.535805   22.718170
H   54.363052   74.393188   64.514587
H   70.077820   82.433151   53.391804
H   33.370659   44.492363    0.358890
H    6.979260   55.450405   56.259659
H   66.595467   60.111912   52.559238
H   55.444347   19.383125   84.550354
H   51.740173   49.422523   89.119904
H   31.824036   87.841171   90.294014
H   80.063858   52.728577   95.181351
H   16.432041   22.016769    8.162575
H   98.348412   70.310875   47.247704
H   50.972149   37.180614   55.480850
H   67.268440   91.475517   92.878723
H   10.807765    7.372267   96.984138
H   13.401423   59.050133   45.245766
H   48.754185   35.924206   84.512810
H    5.770122   82.715736    4.877360
H   28.087198   91.250961   37.996830
H   90.778488   83.316803   85.877251
H   96.754845    7.292859    0.400155
H   62.250854   24.736515   16.323597
H   60.665977   74.207893   67.089081
H   13.429218   29.076027   57.747009
H   67.213280   67.830986    9.169836
H   52.364677   25.747442   33.470795
H   79.992294   60.658501   79.200325
H   36.742123   62.833202   38.345261
H   69.158134   96.874939   59.959637
H   21.498240   45.984299   47.658394
H   69.424042    7.247953   82.220474
H   26.178120   76.579536   30.695436
H   53.028633   13.181393   53.729588
H   88.671005   59.192902   58.057663
H   87.144554   11.434413   92.698700
H   26.715242   82.843338   58.630363
H   23.363098   62.670834   43.312302
H   11.273867   24.922138   20.704563
