100
TIME:    8.809, STEP:  8809
H   21.605316   14.194239   91.081131
H   57.193039   82.211090   33.540310
H   31.189524    7.658980   19.935970
H   82.955170   69.719536   57.312614
H   16.262938   78.837448   26.856697
H   91.414185   91.664650   51.131180
H   91.290596   56.164925   79.328438
H   27.516266   50.691677   99.379936
H   37.085838   39.343307   45.592434
H   34.155037   42.869190   52.628700
H   80.863312   20.691120   91.222023
H   19.625526   65.240257   65.894798
H   82.028900   28.790451   49.692749
H   18.912485   77.924080   27.608829
H   87.600105   83.169533   27.276123
H   47.332870   41.261681    1.816525
H   15.739778   64.616219   75.306374
H   89.437851   66.193031   94.163651
H   82.468521   47.902851   27.454159
H   55.183727   18.745119   16.090235
H   41.538170   79.253754   18.153254
H    6.907753   55.778061   69.110565
H   68.129356   22.983427   80.314148
H    0.574387   42.209442   52.841839
H   14.524438   87.562347    1.595640
H    6.071424   66.414169   61.916866
H    2.468629   76.298355   74.753159
H   89.263947   67.614044   57.953186
H    2.713803   48.313198   40.765251
H   38.768562   72.816605   83.679077
H   62.747402   11.976168   12.439034
H   21.962788    9.130144   83.770836
H   90.850723   23.973770   91.381241
H   50.303619   66.430420    0.643100
H   61.724052   92.705116   61.000706
H   38.388462   75.390884   91.732460
H   24.697052   81.929939    2.580172
H   99.901039   97.741753   44.067299
H   73.242577   89.485130   90.655151
H   33.484375   87.514244   31.108015
H   33.218201   58.438263   49.880703
H   57.839371   76.147659   29.676365
H   87.097443   16.330444   37.756031
H   16.860363   60.506691   42.031322
H   92.540451   84.341103    9.921035
H   64.415459   30.929211   18.948847
H   10.561969    3.901067   10.025633
H   56.725277   86.099838   13.628204
H   22.526787    2.889680   93.078888
H   10.684826   64.812462   67.608543
H   42.896725   19.191471   46.288742
H   33.246975   46.329403   95.779823
H   91.590965   73.086304   91.259567
H   72.692963   63.482269   20.532860
H   39.409584   30.583231   75.267380
H    4.567358    3.267510   92.747635
H   54.703148   35.366661   93.796562
H   70.119568   44.986107   86.654808
H   85.024666   10.980054   35.218529
H   77.715141    4.876326   13.061668
H   15.378843   68.910400   27.577244
H   86.269279   45.949142   96.774757
H   72.104630    6.172324   29.410889
H   47.938587   89.749374   87.974609
H   81.968018   57.284634   15.912479
H   60.198097    4.352094   67.041191
H   80.805710   52.910618   92.360031
H   71.867828   21.333710   87.323746
H   95.940399   16.827766    7.746735
H    8.931212   91.098099   83.159866
H   42.302532   96.034935   56.484596
H   47.867111   59.106834    1.742666
H   32.628418   82.581261   35.887318
H   36.288059   91.898415   79.752998
H   86.809952   41.286007   69.205963
H   33.907837   72.148186    3.196031
H   66.827957   63.360172   46.972404
H   45.837826   74.726967    0.936413
H   83.936760   27.643909   15.964653
H   67.523735   29.151861   62.017998
H   83.266167   20.415506    6.485024
H    2.317009    1.599757   50.042557
H   75.063728   54.435825   68.868477
H   56.193375   65.964455   58.850368
H   23.405914   97.865524   93.819992
H   48.554066   32.622398   53.506943
H   55.488041   62.866096   43.590355
H   97.701988    0.169170    4.242235
H   38.497562    3.701693   56.144539
H   87.504898   46.851204   39.117233
H   84.523247   49.090061   19.492088
H   30.075693   58.000290    1.376482
H   50.127338   91.828941    0.218078
H   98.621475   47.604725   20.775473
H    4.287265   60.674046   18.507711
H   21.508911   47.873779   12.452772
H   63.385307   73.209236   30.575260
H   21.273905   22.330070    2.039061
H   89.072716   74.841591    7.190647
H   86.372284   52.579098   49.141705
