100
TIME:    6.897, STEP:  6897
H   50.906082   89.533028   92.831619
H    9.998257   78.602776   12.982783
H   98.322922   70.101830   42.382061
H   82.634247   48.494476   62.116314
H   33.395248   25.582304   78.699600
H   21.064213   93.736061   61.780087
H   91.498627   27.055927   29.807535
H   77.795692   85.280060   74.934715
H   84.086449   23.175079   65.946648
H   86.377937   15.415619   77.763191
H   58.712891   43.758213   75.394997
H   92.600586   69.401627    1.993555
H    3.954849   44.513355   39.700859
H   13.583166   83.817390   82.104942
H   64.376961   53.958794   19.226383
H   24.210640    8.492184   60.529785
H   69.491371   38.153446    1.249461
H   48.556622   59.231003   60.438324
H   52.686588   67.692780   26.722820
H    6.702042   59.344242   85.912468
H   54.998962   69.599884   70.044289
H   23.602448   53.239853   31.934998
H   93.657310   38.529366   35.020111
H   78.227669   19.336397   94.842010
H   82.908394   39.193748   87.475807
H   15.087322   22.776928   41.844620
H   67.343864   55.778412   36.815464
H   50.592415   78.368355   94.749954
H   61.139534   74.841866   31.146433
H   65.454712   20.139366   31.679817
H   87.495781   40.522888   63.710320
H    1.238167   61.951603   60.774223
H   56.173351   63.864967   19.133184
H   69.516411   41.653763   81.192032
H    9.308584   37.470345   44.671097
H   72.182137   25.631603   97.742470
H   41.310997   51.952759   51.921909
H   78.926018   32.734425    9.144408
H   53.949261   31.141317   75.941895
H   13.573483   66.510147   80.676559
H   63.890472   92.836937    4.835710
H   18.972519   68.649734   32.064579
H   70.642853    4.860994   99.652397
H   38.946537   28.408529   55.087112
H   58.391251   59.769573   46.305363
H   89.097343   94.466568   11.181055
H   95.617477   99.919632   91.668739
H   56.608578   66.406845   95.325226
H   66.633492   61.239368   69.351730
H   70.543213   35.710186    1.293160
H   43.028011    3.782357   26.131077
H   40.321415   23.748672   21.291328
H   51.937969   61.999878    2.301135
H   16.974716   94.670380   36.161087
H   91.645157   63.026047   59.012539
H    2.185964    5.278749   57.836639
H   33.491634   90.536217   11.949617
H   12.491054   25.551153   35.905502
H   34.228622   30.187748   82.001427
H    3.888893   57.915516   67.443504
H   94.768272   57.827690   76.651047
H   54.129921   63.745773   83.286789
H   42.298000   36.644569   60.522461
H   16.643902   79.333969   39.886944
H    6.075663    9.991940   37.856937
H   77.653900   99.403160   53.988312
H   34.209732   86.809326    0.048541
H    3.942713   11.983890   95.919083
H    0.646263   54.211899   27.664677
H   70.114708   95.040459   87.210022
H    3.020760   26.129852   79.415993
H    5.297030   22.616684   61.597496
H   57.294037   77.154373   84.909485
H   78.377693   12.908718   93.357758
H   94.703606   38.474628   24.237709
H   88.706169   49.606464   31.849188
H   93.177338   28.847752   13.060766
H   56.013927   99.741814   95.334312
H   92.250008   33.260059   94.629646
H   61.289566   33.307930   26.738365
H   45.836639    0.634438   92.207016
H   58.841171   89.198822   10.001747
H   54.126900   22.460241   86.778656
H   24.652596    2.350056   33.482677
H   16.502714   17.473198   79.165627
H   92.554794   62.394852   20.731995
H   27.789827    1.884408   52.418968
H   66.951744   53.169682   24.066704
H   98.814316   10.158653   71.782234
H   56.552013   25.514393   70.766251
H    6.276377   45.849388   79.113815
H   88.607056   14.199834   64.937660
H   27.564350   34.463764   52.360176
H   13.835416   31.605799   91.853165
H   37.348228   31.938446   74.572205
H   63.585510   23.376535   11.210028
H   15.151112   63.484390   40.536789
H   24.964518   27.723293   40.424210
H   80.155968   66.585121   67.342140
H   67.609047    1.647419   33.330585
