100
TIME:    0.388, STEP:   388
H   91.083900   86.439796   98.790787
H   90.477272   25.781464    2.475432
H   86.430817    1.818512   18.784111
H   81.541733   16.664465   18.895315
H   91.695770    3.857431   55.184776
H   21.999718    0.791360   17.170237
H   32.635815   87.537071   20.794878
H   89.390259   22.169201   72.569832
H   44.090218   48.988815   75.664619
H   64.237160   21.957130   22.883188
H   64.164215   81.854630    2.375718
H   41.032238   43.139015   65.310753
H   18.582043   38.232956   86.564812
H   35.870380    3.880974   86.766853
H   85.221718   35.365471   32.121136
H   85.923096   77.800423    0.832496
H   92.871941    7.656056    8.681558
H    9.435905   75.832153   86.095016
H   51.306076   94.629211   83.803955
H   82.146584   97.396851   42.658165
H   41.252075   17.590431   46.711441
H   99.551674   44.612053   86.218147
H   80.563667   91.466637   21.249069
H   82.992111   41.335209   78.259048
H   15.706522   55.403202   39.423660
H   44.879902   16.048367   52.805717
H   28.620729   26.347935    7.665534
H   99.803276   74.549713   79.600113
H   19.607986   84.294548   38.830719
H   15.871390   81.236740   14.233574
H   31.364565   56.836433   78.708855
H   90.256012   41.791008   63.344978
H   97.687439   40.093910   32.751060
H   94.495766   38.164734   55.405235
H   71.127480   29.590469   48.354195
H    6.289918   14.965067   19.309278
H   17.013599   90.326027   39.038097
H   47.952621   51.852718   49.820690
H   33.276905   72.225334    4.938178
H   26.648506   75.860451   68.562126
H    8.726887   69.492409   51.481586
H   96.749931   29.271112   21.028891
H   14.583220   65.826660   29.499096
H   54.582809   19.274008   18.668495
H   22.999687   16.583248   89.309387
H   72.996056   70.498100   84.839836
H   40.176991   46.671970   30.938665
H   56.260136   99.377914   92.585205
H   76.370354    0.315937   28.996092
H   34.027386   36.655003   56.526588
H   43.515018   32.185081   57.507893
H   23.988626   27.735107   48.591240
H   16.927614   24.258484   80.336159
H   67.702637    0.871267   48.937458
H    9.870317   92.518799    3.698498
H   94.051712   12.124174   79.418365
H   20.849709   78.351295   92.889381
H   97.167664   40.245018    3.560652
H   20.877960   55.162720   81.696915
H   33.414536   57.611794   52.573936
H   84.175797   60.525459   84.144073
H   85.140259   24.333908   77.799774
H    0.550039   80.694649    6.939673
H   69.683601   43.905106   16.605688
H   47.723122   29.854919   31.694548
H   77.509956   22.984486   69.127449
H   56.438805   61.774448   85.794540
H   53.564003   39.727768   84.751244
H   76.240929   21.907112   35.897961
H   38.246330   67.660301    0.914859
H    9.711218   69.005058   57.493961
H   41.974537   38.648628   85.029366
H   81.693222   99.115852   51.800495
H   21.650772   24.825960   80.148613
H   80.878342   29.195776   30.811390
H   34.831310   32.439384   69.821121
H    2.182422   92.915154   97.899109
H   50.209274   25.350025   35.868137
H   80.150902   52.365582   22.014793
H   80.497238   87.823189   87.494690
H   18.474667   33.295696    3.178831
H   70.435890   46.761490   54.335724
H   42.345715   13.733531   66.854950
H   76.861176   45.363255   27.990639
H   33.437820   24.613937   10.140172
H   42.363140   23.305725   68.727135
H   93.068352   75.142159   42.044491
H   62.201202   74.229836   91.706001
H   63.735054   72.569023   25.026283
H   32.031715   93.321396   38.082592
H   39.901127   94.382843   41.655590
H    6.994808   24.687193   40.916832
H   10.178963   39.256653   48.931694
H   84.729469   36.767593   52.978687
H   49.883823   14.974468   25.002254
H   25.968826   80.409660   47.408302
H   31.804354   89.947044   14.874786
H    8.289763   19.541260   49.827515
H   90.228752   38.522808   12.551380
H   63.337597   68.738274   60.316147
