100
TIME:    7.796, STEP:  7796
H   90.110832    7.090804   92.008560
H   85.170486   27.317577   69.669144
H   13.777040   34.778885   31.826385
H   82.785141   11.454914   12.836876
H   25.340151   97.641121   54.323334
H    7.121312   92.762108   50.810516
H   44.381351   87.760712    0.110504
H    7.136070   63.053875   92.390617
H   61.987312   36.739853    9.356083
H   61.823341   28.324007   12.963791
H   75.090103   79.931656   88.799286
H   58.291595   14.463572   38.000801
H   46.624733   90.104538   50.361393
H   69.069939   81.046425   50.519909
H   75.296211   73.655685   75.991241
H   88.062469   29.862427   85.904572
H   97.198982   97.616486   83.088989
H   67.780563   15.485434   29.278378
H   66.686768    5.403468   74.084473
H   82.478561   40.256130   47.120522
H    1.651034   80.101074   45.645748
H    9.790452   54.433289   55.376862
H   81.654366   31.218225    9.296935
H   94.696930   30.091036   28.074711
H   50.754219   67.899338   94.115150
H   10.848568   96.277390   57.244911
H   89.821152   18.405920   54.655270
H   74.737297   20.330618   24.466131
H   80.687187   56.405994   88.651512
H   99.927170   97.888107    3.148640
H   22.876558   21.138355   92.584373
H   58.001461   37.115795   77.549309
H   19.496363   98.090401    0.122200
H    7.500934   59.265816   43.317596
H   86.934669   69.403435   99.365799
H   50.330463   96.044617   94.916634
H   27.537170   19.029043   22.759489
H   41.769005   16.280102   72.582619
H   15.999379   11.555941   88.822289
H   28.897717   82.348114   51.408203
H    2.450684   23.682852   26.014860
H   43.209587   72.175171   77.959068
H   78.379608   10.253746   64.585426
H   81.542435   43.497948   42.986774
H   80.410133   24.302586   23.234989
H   77.492210   11.611632   14.833380
H    2.642522   48.811470    0.297327
H   56.663448   75.666260   50.949841
H   92.916512   86.785530   33.487953
H   89.418701   49.393543   38.435997
H   42.966282   16.990053   35.607849
H   84.013901   40.327869   62.277985
H   70.584694   67.212585   50.091591
H   96.156921   80.006210   75.832535
H   20.065880   41.809196   66.657745
H    3.305668    4.333088   27.232559
H   90.484802   64.596138   97.451820
H   45.549240   40.651649   12.747497
H    5.127911   68.178032   12.986977
H   44.562637   27.014530   41.873802
H   51.478497   16.021835    6.559239
H   22.222664   55.378006   42.610344
H    3.330486   75.297882   98.875336
H   78.377739   84.231171   15.476420
H   41.759689   38.190708   21.576647
H   22.427231   54.711052    7.144433
H   62.080872   17.890881   43.453594
H   41.842796   63.398979   38.896484
H   45.454498   89.615501   71.282227
H   88.357460   40.216763   85.308411
H   74.474083   64.962402   68.633919
H   31.286072   92.741600   27.490187
H   98.676834   32.690632   61.863064
H   58.585003   56.009754   39.941223
H   38.011719   39.794392   92.399750
H    9.957467    7.222847   71.356514
H   74.825890   51.037621   29.004107
H   98.250580   40.960873   44.984257
H   35.359482   30.619411    4.659678
H   17.202187   84.334099   49.288795
H   63.434639    9.935555   45.939178
H   26.302414   95.028824   34.791065
H   10.988702   37.494785   72.395340
H   86.501534   79.279663   51.372417
H   72.729691   61.232845   92.018333
H   71.868576   95.413574   83.161026
H   87.831993   36.519768   95.286629
H   81.410149   81.230774   14.745560
H   17.473164   60.103325   64.429573
H   77.068115   88.526871    2.906311
H   43.067158   94.393593   98.099045
H   55.123951   81.813278   82.071007
H   85.192200   61.439526   21.881227
H    0.719701   86.147179   52.471066
H   21.803879   51.412117   95.230988
H   37.839249   87.876892   64.775368
H   43.792259   15.075976   88.833366
H   23.229235   72.204369   22.376810
H   37.329460   70.467216   92.040138
H   23.451189   78.574631   46.727299
