200
TIME:    0.007, STEP:     7
H    2.311540   63.248272   11.355421
H   25.887547   29.476305   80.438309
H   23.021338   58.939781   33.871696
H    9.988579   74.250404   50.592587
H   17.684114   77.823898   57.008480
H   97.198486   59.138981   72.446709
H   99.983528   55.469452   45.141468
H   97.667419   78.824890   33.342842
H   77.966049   90.999306   53.403450
H   19.063274   78.162651    5.262575
H    4.072265   89.616768   85.598648
H   29.814316   35.803738    1.640244
H    5.455478   79.275108   70.841209
H   15.417107   52.223896   31.038174
H   30.871277   70.150940   43.551884
H   36.091896   35.566559   59.349308
H   73.246429   96.805885   26.744562
H   42.095112   71.966072   47.668510
H   57.273098   38.136982   39.053860
H   89.314972   82.904442   46.502956
H   55.288834   65.127098   36.515255
H   95.216209   39.908348   79.553596
H    1.982626   64.235558   54.726913
H    3.712953   86.000771   92.330353
H   93.119156    3.332874   53.724415
H   18.853968   51.996582   14.651991
H   94.384087   54.121540   39.713654
H   89.163116   60.517361    0.118191
H    1.255156   63.611885   39.702709
H    3.578650   14.522575    6.685490
H   13.665692   41.714848   15.909945
H   36.163078   58.045395   87.866653
H   32.753113    3.971902   70.333138
H    4.138470   63.323715   34.217705
H   59.169849   99.428757   35.991405
H   40.672260   55.234455   76.804672
H   79.576950   79.457970   84.205727
H   44.440292   38.728195   25.643572
H   61.693626   54.744011   39.252453
H   92.317253   40.646641   72.797943
H   80.437241   16.113249   93.790596
H    1.741979   47.992756   46.739971
H   80.897110   93.134430   41.676464
H   37.800339   51.918331   10.415162
H   20.816250   69.186333   35.955635
H   44.338665   19.902422   40.153839
H   75.583359   37.627354   91.070045
H   95.788300   65.554161   56.023941
H   78.069466   37.594189   60.998344
H   70.454773   16.750025   15.570130
H   83.750946   73.445236   37.102730
H   30.045027   31.687603   58.531338
H   45.893665    1.090097    4.879890
H   25.874342   77.266724   78.252747
H   87.061295   81.566780   98.308807
H    8.292549   78.090088   71.018555
H    6.095436   15.863782   52.153965
H   64.863083   53.162899    9.508842
H   33.097595   69.976456    1.491119
H   48.492233   97.297523   71.301476
H   51.174129   19.922298   49.044010
H   85.750328   15.872973   47.280533
H   65.028221   20.379707   92.745682
H   18.480669   64.819916   98.465553
H   67.602867   72.605545    8.401671
H   47.879482    7.509095   28.675156
H   94.878517   28.076742   81.021248
H   98.646217   90.920189   82.658554
H    8.234851    2.704587   64.928925
H   46.578201   37.568947   50.995037
H   58.567379   72.562202   67.048904
H   38.688461   29.946278   46.395821
H   70.098770   21.634945    7.297443
H    0.274554   14.086099   53.790009
H   76.307907   97.099510   78.568367
H   47.424408   27.302673   64.399796
H   96.412399   21.276159   75.441338
H   35.185120    1.727107   55.934959
H    9.759132   19.312401   40.098972
H   71.786949   91.966408    5.311617
H   33.479038   34.039757    4.592149
H   16.391424   72.780167   95.060265
H   11.908758   11.110486   97.097000
H   32.272167   54.240593   86.257416
H   47.205395   96.860031   64.385223
H   18.102800   93.926620   32.633137
H   25.412420    2.298589    1.237168
H   77.269127   27.216160    2.653996
H   58.560658   71.471153   76.318390
H   24.611156   75.603470   57.428875
H   51.009552   32.881386   81.790855
H   85.678421   86.491165   93.283768
H   36.191162   19.489908    2.365695
H   70.476547    2.804597   62.707092
H   19.220884   60.077972   58.235596
H   78.921150   22.499897   40.016563
H   76.144936   22.338144   88.294395
H   13.300007   24.818083   46.387508
H   42.297523   72.112083   52.055531
H   63.153172   94.140991   27.193521
H   99.470703   73.984192   57.967655
H   81.908043   73.131493   67.149841
H   18.349524   45.684891   27.246634
H   10.679825   67.509293   80.909706
H   25.647650   30.534739   17.533367
H   78.198883   38.180740   54.799313
H   54.620884   27.203657   57.343597
H   66.123543   25.328358   27.751175
H   66.875214   43.030773   87.865852
H   96.882339   31.309042    4.396903
H   44.128986   98.091522    0.631918
H   76.638191   57.485279   87.857132
H   61.140858   77.570854   99.003448
H   64.013451   24.420538   80.962433
H   71.625694   72.266159   34.942448
H   23.547184   12.613707   68.423149
H   42.154690    5.161741   81.463852
H   41.953251   15.527978   38.635948
H   10.013650   48.965801   95.055267
H   64.633743   42.024532   40.650944
H   38.122749   20.211102   95.154831
H   28.342590   32.999630   41.334438
H   26.618929   31.649410   17.117207
H    7.510174   75.703995   28.068464
H   83.885445   14.715709    0.519285
H   39.186077   55.976891   30.030170
H    1.178051   48.102005   80.053223
H   80.525192   85.742546   33.034718
H   89.600372   60.917725   90.200104
H   56.451790   25.253710   62.532120
H   39.203415   93.505096   94.507118
H   90.643356   83.740433    3.832357
H   93.198586   71.258667   95.641945
H   12.345755    7.028944   46.838856
H   92.915764    5.583068   67.123665
H   68.563850    1.925884   87.114243
H   68.506966   85.970787   43.739502
H   89.230934   71.495064   86.879883
H   40.223007   41.075203   71.605194
H   43.321732   20.264982    1.931938
H   39.082493   69.921379    7.383600
H   67.964630   33.931339   40.815285
H   62.495625   52.472412    7.243049
H   68.389641   34.962040   74.263374
H   29.349842   77.494514   41.449543
H   37.402973   57.960911   41.005360
H   39.220543   97.798164   48.950218
H   49.014648   82.091843   70.161766
H   58.956394   74.519577    0.260788
H    1.994742   86.066689   98.702682
H   84.432961   57.352901   53.103180
H   23.979553   13.556774   55.454021
H   65.351646   40.550846   11.644390
H    3.750563   95.793953   81.710327
H    4.373164   47.725708   56.537518
H   56.585266   42.951168   46.892590
H   56.872326   53.896538   77.996872
H   42.733418   40.398293    4.265341
H   23.045843    2.612268   11.245470
H   66.291153   66.450684   69.299500
H   51.667225   93.875366   89.610992
H   54.543758   24.263769   37.562496
H   55.189861   44.728321   37.328934
H    2.722180   13.334737   81.167847
H   61.185135   14.182267    7.535156
H    7.899317   71.852043   63.575508
H   78.911987    1.335337   49.751656
H   23.428673   20.331554   38.377857
H   90.906967   28.927933   37.407116
H   15.839948   12.218031   93.027161
H   83.816223    2.862909   35.995628
H   54.212135   74.100708   56.742611
H   33.171047   87.465958   96.979996
H   74.089897   80.129654   68.847031
H   82.267303   96.789307   10.186320
H   93.713280   46.402275   23.063206
H   37.811348   45.642567   77.161118
H   99.664879    8.978653   61.900860
H   81.560249   26.796061   71.859978
H   97.384171   51.955727   83.098129
H   85.671730   76.839798   47.136684
H   14.528077   29.821621   61.110119
H   76.361481   90.407516    1.458506
H   46.407509   24.788815   68.618462
H   82.509850   98.440315   79.356766
H   94.382561   34.257690   82.788063
H   23.239281    8.515708   94.102859
H    1.614880   57.355644   17.373804
H   13.365889   60.134369   63.880493
H   45.376545   59.540775   62.759235
H   36.689522   38.733120   80.965340
H   49.563000   78.597214   27.592173
H   98.925156   11.980870   52.468822
H   39.174381   54.231312   28.617340
H   92.890472   64.662529   22.578451
H   74.759293    9.811709   32.758690
H    7.912509   79.206093   95.602432
H   35.681240    2.036648   53.537792
H   15.020418   10.959942   88.437645
H   10.438004   42.886391    0.986064
