100
TIME:    9.809, STEP:  9809
H   53.979156   22.489693   90.165604
H   29.574966   36.399746   96.593315
H   48.378551   79.602882    8.196878
H   83.123016   28.520483    2.497082
H    7.302214   58.991592   99.744499
H   75.911255   90.581276   50.164360
H   38.880314   23.688593   57.529751
H   48.918243   37.204845    7.563286
H   12.503929   43.196655   82.646248
H    6.838289   57.227711   91.782753
H   87.845673   60.927475   94.894478
H   81.459373   15.364767   94.714165
H   18.262421   68.261971   50.315964
H   69.398560   74.841805    3.708411
H   99.746101   93.844604   79.184593
H    7.123621   53.797958   18.808048
H   35.325661   30.759895   66.340317
H   10.826880   17.532753   59.496674
H   98.047745   89.852188   80.144867
H   28.244335   97.508270   84.174950
H   82.196259   79.701424   91.009323
H    2.778732   57.105576   83.951340
H   54.777916   14.854038   51.703918
H    7.659962   54.172333   78.573212
H   78.758652    8.257057    8.977222
H    1.354284   36.934189   67.812126
H   16.237568   34.728039   94.589584
H    4.887217   14.290669   91.005119
H   24.458538   39.040928   93.495956
H   77.113899   48.066849   63.175911
H    2.100360    1.648317   33.322235
H   85.103653   81.498642   91.195839
H   61.291496   50.809036   81.469139
H   92.555206   74.786400   58.513634
H   36.836967   16.991005   21.840200
H   25.316671   53.717945   88.589149
H   20.610065   45.308846   81.376236
H   58.565983   79.446465   14.635573
H   31.030804   67.695580   93.747826
H   39.295307   93.896683    9.785951
H   64.875763   92.754044   73.440269
H   73.564583   80.072739   80.719719
H   95.703400   22.330963    9.987576
H   53.014347   77.292946   39.804844
H    5.780193   44.864506   95.486160
H   51.513908   50.002483   23.011499
H   18.380772   58.289051   19.628412
H   56.786312   96.399521   75.502518
H   51.754997   20.069271   53.190346
H   31.673773   80.040733   97.687202
H   45.900089   22.878731   52.111511
H   81.846222   53.537285   30.136404
H   12.330990   78.884644   33.180672
H   49.534889   47.162994   64.660286
H   59.787788   18.218435   83.766525
H    5.812857    2.215608   58.705276
H   18.100571    6.511713   88.904900
H   95.657913   50.548241   60.897972
H   63.895870   53.237373   58.449100
H   11.726801   81.740677   84.619301
H   78.463531   22.407648   49.615971
H   50.777336   36.641281   51.530342
H   40.011707   37.963760   60.851425
H   16.606171   95.196762   60.828331
H   21.658245   77.414742    9.037791
H   98.767822   54.639122   26.169489
H    0.573522   87.484589   40.641247
H    2.790925   78.524361   35.129532
H   45.782120   44.974152   45.030071
H   29.240662   41.324360   81.038895
H   10.543613   27.991955   44.491188
H   65.518730   25.903709   75.040680
H   67.427261   33.117031   10.244923
H   14.277256   28.609020   20.336023
H   34.979424   42.758480   45.026508
H   57.551331   36.237537   35.908203
H   57.649361   76.806808   64.710442
H   92.816689    9.343056   56.165718
H   31.890577   24.706593   27.126451
H   18.483040   74.676369   75.867165
H    2.842935   30.760965   66.254005
H   77.354698    8.091432   66.381798
H   38.314209   71.159462   64.103622
H   24.993000   51.536819   67.515923
H   74.715118   35.307991   96.881851
H   25.536182   69.356819   22.950108
H   22.275850   90.157631   91.274071
H   13.783501   20.151510   93.878525
H   59.249516   48.022530   47.965828
H   99.091003    5.705879   74.863266
H   25.448019    3.088461   40.610252
H    4.065568   33.209564   20.427347
H   14.229198   21.833220   77.549614
H   92.192299    8.040368   92.924461
H   86.998322   71.099861   41.485207
H    4.104782    8.385948   60.801315
H   84.010246   30.596039   73.063385
H   19.343668   71.808640   81.958885
H   41.434776   79.159828   23.430820
H   48.485352   26.920689   52.808483
