100
TIME:    7.254, STEP:  7254
H   26.763556   56.794228   92.504776
H    0.139641   97.946449   35.492962
H    4.460392   95.786263   38.190296
H   82.694168   33.786530   42.546574
H   30.196863   54.197430   69.019592
H   15.527001   93.349297   97.133804
H   72.786850   51.163342   57.725399
H   49.736198   16.165615   42.155968
H   75.310707   88.850784   43.473682
H   76.627113   20.541689   91.741188
H   25.505615   58.122974   41.007462
H   78.976669   87.296295   76.581581
H   81.186165   22.910282    4.224382
H   95.906944   82.717018    9.271969
H   68.713081   22.069786    2.058823
H    9.855412   77.267578   30.895945
H   40.783638   61.765148   33.748592
H   56.191135   41.859283   48.064583
H   58.245647   82.667648   45.529926
H   97.083847   51.764202   10.218607
H   33.814072   34.058830   60.354412
H   57.828384   53.713776    1.533187
H   88.890846   35.625908   24.805300
H   45.056969   23.607149   68.329575
H   70.139717   10.880951   90.112343
H   13.404079   12.253937    8.248662
H   36.558247   40.937004   43.899792
H   20.470562   95.031914    6.550128
H   68.902061    7.231865   14.271788
H   79.143997   11.303341   60.060692
H    1.544807   72.535187   35.465614
H   23.779110   52.089108   27.724922
H   81.319344   37.744743   51.294563
H   84.600227    8.936900   66.151794
H    0.423492   10.440407   66.392258
H    3.215806   53.593353   96.620308
H   75.551468   38.879028   80.052216
H   64.169044   26.200283   34.335854
H   38.879063   23.363810   41.345535
H   79.947334   33.087902    8.763715
H   39.491623    5.087082   13.245796
H   88.886253   70.049713   50.288815
H   73.715179    7.002499   25.438068
H   16.151943   34.400658   89.993279
H   27.425373   45.685352   76.854317
H   84.488853    1.275593   12.631422
H   98.406540   19.335361   95.095146
H   56.630367   70.083832   17.413921
H   77.070686   31.673672   55.110558
H   78.038818   41.143955   76.333138
H   43.003498   69.316605   29.893860
H   57.673107   90.621292   97.856659
H   59.343693   64.069885   81.568214
H    8.708305   88.847122   51.914932
H   63.220688   94.310478   62.049458
H    2.630607    4.903219   45.683517
H   56.122807   80.235207   45.903267
H   85.908127   91.836311   26.709528
H   62.383446   45.274288   54.595619
H   80.329277   85.354614   57.289574
H   17.288336   41.226776   48.816383
H   41.459297   60.422867   67.135284
H   66.535866   12.282853   36.041901
H   41.159016   81.278687   30.193317
H   20.245728   81.479736   71.102348
H   55.722717   81.655571   75.096939
H    5.566140   99.153107   17.285318
H   79.282280   32.402031   12.985747
H   18.439682   28.560150    5.273517
H   77.349739   12.995073   86.457977
H   91.684502    1.839553   75.134346
H   75.917686   10.738297   87.761604
H   34.017349   59.498692   75.757874
H   70.517113   90.313843   72.145630
H   11.904088   38.996311   51.304813
H   97.144173   72.487206    7.827799
H   25.601009   97.947701   19.391993
H   72.786438   76.399757   15.050069
H    9.369912   32.211437   98.611687
H   43.781662   13.859561   95.982704
H   52.823891    4.328317   13.544477
H   85.630898   91.513962   80.134254
H   76.707512   28.430578   20.777161
H   49.212551   32.900021    0.877093
H   99.120102   95.140587   44.558372
H   84.340134   75.507050   45.523056
H   51.633045   75.927574   69.442055
H   72.693291   24.601210   20.365204
H    6.223620   90.281517   68.862434
H   24.987429   10.825512   83.529480
H   20.886311   65.125130   86.653000
H   15.021441   41.049149   71.741447
H   50.448826   45.176052   79.967537
H   48.337120   53.264610   15.924832
H   31.176155   99.959641   82.775970
H   93.072220    9.279733   92.770210
H   86.814171   83.972015   20.004787
H   24.275423   45.386776   33.258171
H   63.149223   68.126732   37.439007
H   89.785362   92.485214   98.938843
