100
TIME:    5.636, STEP:  5636
H   36.182289    5.172194   93.986099
H   44.822029   10.269441   33.473026
H   76.637939   79.380615   57.188267
H   82.422592    0.446115   31.234146
H   44.689911   24.507677   12.890486
H   40.623028   95.102196   36.898205
H   57.586117   41.907818   31.195620
H   76.907806   76.187057   90.714806
H   15.084297   44.415024   45.321182
H   20.823271   97.307976   28.389341
H   76.008041   93.019424   96.861717
H   40.731270    6.194225   91.752831
H   84.422104   20.770538   65.000420
H   76.019966   87.704140   86.142021
H   49.053535   66.597244   79.855621
H   74.912292   18.784012   65.203827
H   70.893501   54.747288   86.455658
H   21.589895   20.589981    4.153406
H   33.050808   14.789409   60.286793
H   40.672615   86.126503    0.057747
H   29.828484   95.135193    4.274002
H    2.709152   51.565857   39.320801
H   10.494521   48.784996   71.097610
H   95.392113    4.251193   88.494827
H   28.007904   39.197121   78.163002
H   20.854254   60.046524   60.432785
H   76.080902    8.194298   11.792517
H   56.991703   19.509117   53.070702
H   33.720634   60.433933   90.756012
H   17.102730   51.348808   31.433941
H   37.867317   27.446846   63.476555
H   21.617558   96.797089   77.511314
H   67.350578   56.125587    5.532345
H   16.235737   57.216942   34.314598
H   40.676285   32.881821   67.920013
H   62.565403   26.864655    1.707053
H   20.365078   98.131958   52.560040
H   31.046284   55.814404   20.158863
H    7.173701   58.617790   98.142403
H   32.345547   84.559959   81.463585
H   50.070724   49.566391   75.127419
H   25.242748   63.705284   67.685600
H   59.787006   97.297363    8.568738
H   19.466579    7.243020   31.794455
H   67.773506    9.525420   38.398540
H    5.373636   70.414902    6.058051
H   85.765915   31.343475   79.565941
H   56.540409   53.418945   17.301626
H   29.776031   65.675232   19.651176
H   44.081661   16.514875   89.475266
H   43.114628   25.524294   12.839555
H   79.031807   40.760784    4.067982
H   25.779377   54.688171   75.539818
H   46.173439   15.244725   80.517906
H   92.047874   52.517628   48.285496
H    0.615354    6.605198    0.764060
H   53.548706   26.922569   92.017860
H    6.387677   44.637245   68.384872
H   34.775932   76.903770   78.804893
H   87.101059   60.990955    3.309334
H   15.223606   16.472248   74.968376
H   98.885262   75.482986   40.343605
H   56.689449   22.692640   46.993011
H   30.053207   72.464813   74.124054
H   56.026695   10.705795   20.425295
H   55.117546   62.090813   79.427635
H   35.382111   43.213055   39.168961
H   91.048561   39.866673   35.635990
H   37.799984   44.819313    6.751616
H   44.569534   31.616142   89.865326
H   43.064812   11.927284   94.539680
H    9.253590   64.477081   69.264420
H   39.514038   39.526093   17.239983
H    6.140896   92.716759   68.281578
H   33.905758   36.675564   28.645477
H   58.899696   68.788750   16.698515
H   78.667656   38.055035   90.723671
H   96.769852   82.196617   25.694635
H   31.779621   36.964016   80.564232
H   23.129467    1.999423   35.374725
H   21.159632   87.588669   16.839685
H   64.207962   81.021118   15.489326
H   74.365166    1.373106   66.688675
H   37.897690   94.443527   48.654942
H   77.902519   96.349098    1.405497
H   21.577549   16.072998   33.164276
H   43.570427   93.569664   92.289673
H   46.671379   54.075893   37.141190
H   72.646103   80.368980   82.095589
H   68.041412   77.396164   25.691313
H   54.671013   77.758636   52.483807
H   95.305824   19.360399   40.914482
H   46.731873   96.626595   54.845112
H   91.965584   55.102734    6.825960
H   59.148659   44.891552   45.594761
H   59.432083   73.172272   76.342117
H   15.243364   91.119331   13.057809
H   27.398546   65.325912   65.736839
H   40.226929   61.144878   72.963631
H   89.284973   34.006001   54.807636
