100
TIME:    9.125, STEP:  9125
H    0.235984   85.215736   90.791824
H   48.465622   99.333221   53.466305
H   36.621258   30.392456   16.226818
H   83.008209   56.700737   39.990379
H   13.431349    4.166206   18.289604
H   86.515259   91.322304   82.425507
H   74.727791   77.502174    4.040066
H    2.679291   78.029984   70.367302
H   29.317955    8.960513   25.700575
H   25.523149   47.406483   65.001381
H   51.469757   33.405075   60.782143
H    7.563850   81.079796   43.401207
H   61.878693    9.664671   18.290398
H    3.266532   76.950081   51.657444
H   91.438240   54.942848   12.080292
H   34.627487   13.623200   75.585999
H   90.328712   85.518623    4.073102
H   96.197983   50.816383   83.208572
H   87.391556   61.160328   44.101345
H   46.670879   12.034410   37.605003
H   22.786278   47.795235    9.576311
H   37.202984   56.197556   42.200226
H   63.910301   20.414625   71.273315
H   71.214554   45.989716   29.371973
H    3.222805   62.503426    3.928313
H    4.580893   57.098495   32.178555
H   75.220650   63.163677   81.021469
H   62.599648   82.363861   68.398552
H    9.585235   76.983482   25.827885
H   50.885689   64.995682    8.800194
H   75.183006   40.312107   87.438141
H   41.915302    0.399974   54.517113
H   13.109110    0.854470   19.849020
H   63.655121   37.470825   87.330223
H   53.859734   68.779457   80.225510
H   65.858124    0.141072   90.739174
H   55.004623   70.357674   27.479513
H   86.838844   91.960442   66.365868
H   59.904797   82.599632   60.032043
H    3.720809   57.932144   55.971466
H   11.622599   69.281204   57.325527
H   31.208694   77.386856   45.807796
H   89.816925   18.226608   60.579914
H   96.684120   65.812233   72.927559
H   65.128647   71.876808   36.963123
H   60.338402   36.956219   20.232645
H   13.032527   21.087088   13.060339
H   56.744564   89.354538   33.180439
H   31.762901   76.717323   80.474762
H   17.317663   69.624596   45.513142
H   42.875027   88.683327   49.620590
H   48.604336   17.006382   75.036537
H   98.143761   74.918579   72.907883
H   65.373505   58.325378   34.476448
H   14.248699   58.277046   77.953110
H    4.960936    2.935109   81.990250
H   74.736511   26.248680   23.851004
H   46.589294   15.143446   78.515648
H    9.948025   24.332762   10.958803
H   56.861782   29.165989    4.073875
H   35.313457   54.215229    2.940324
H   75.053825   43.007858   82.478188
H   93.556717   84.609154    7.741821
H   69.638367   91.470749   79.396667
H   94.509460   32.045040   45.340443
H   40.785622   88.642906   85.725578
H   55.452805   63.834354    7.616622
H   50.039642   39.406441    2.430374
H   11.689787   94.122040   87.928497
H   15.348998    6.970591   82.489639
H   32.266003   74.534630   52.694679
H   21.845919   48.614647   24.904976
H   12.024847   66.949059   27.784321
H   29.332645   71.897682   60.976997
H    2.032151   41.751308   93.165375
H   41.379181   92.399651   81.932236
H   95.527176   36.008640   52.577721
H   60.681667   54.065651   18.388954
H   99.091606   26.715717   19.491777
H   52.026543   11.937054   34.794243
H   89.452507   23.684671   25.372231
H   26.029030    3.651122   23.606779
H   95.049995   59.720493   98.961189
H   77.933907   93.004982   29.989620
H    8.019623   78.096237   63.187241
H   41.280415   44.230827   75.450851
H   76.592964   39.890327   58.658409
H    2.783922   74.883766    0.965953
H   45.055180   86.107185   53.560066
H   59.567135   33.849281   50.412247
H   97.455254   66.152222   26.165428
H   53.456493   81.766830    7.396707
H   70.383621    1.308873   24.654840
H   29.161386   66.776108   42.082272
H   98.823456   32.367802   25.768103
H   47.609192   35.395020   96.130600
H   38.302422   91.343941   12.400896
H   20.663950   37.965427   95.693993
H   74.019127   76.206154   80.723274
H    6.001189   44.471279   18.699413
