100
TIME:    3.819, STEP:  3819
H   59.058746   71.799591   95.649612
H   95.037086   11.804129   18.901014
H   45.399872   48.657875   78.513390
H   82.117615   75.307121   30.830240
H   60.964615   78.867195   62.155731
H   68.803352   97.070686   56.955078
H   52.815510   19.214268   89.103706
H   19.720428   18.994389   57.546894
H   59.749626   19.112244   59.695759
H   70.477577   71.218544   57.239738
H   45.020950   19.908024   71.883385
H   10.078682   15.117140   21.088301
H    0.336490   30.652725   45.551216
H   65.986427   93.304634   47.868351
H   26.954952   28.898586   67.198189
H   47.971146   77.705315   16.030859
H   17.006020   34.567730   21.046988
H   82.748863    8.982657   67.145691
H    4.750745   38.565643   64.560226
H   89.628746   24.715551   76.347923
H   37.651840   76.024231   53.587204
H   28.511597   49.153763   94.055176
H   34.754875   63.562538   23.084412
H   64.215019   82.484589   23.440800
H   92.995392   83.293640   64.743996
H   29.145479   13.816693   31.216070
H   32.761883   83.726212   75.745949
H   10.306119   34.697708   93.006554
H   94.210876   95.581833   76.646309
H   47.430206   96.319115   86.988434
H   66.359001   64.511650    7.231819
H    6.891232   46.995308   45.720085
H   39.362667   89.066444   41.842636
H   39.463852   23.734077   10.863091
H   85.840668   70.232964   57.277512
H    4.608770   84.488129    7.504365
H   46.090553   64.675766    9.387540
H    6.146953   89.060356   91.938164
H   83.871552   98.209404   74.222878
H    3.486689   54.661896   38.505215
H   74.250305   87.223206   32.319683
H   88.391159   83.257278   82.221405
H   44.136120   86.401352   77.323509
H   35.489487   76.774963   54.135010
H   25.386034   81.212616   82.912659
H   28.817310   35.758381   98.674507
H   71.570602   32.528709   62.125290
H   56.443371   34.704422    4.876001
H   76.662033   16.160469   92.132202
H    5.973346   88.864555   16.559040
H   43.253254    0.943291   93.683746
H   90.729492    9.364250   23.351406
H   88.092522   44.152588   81.068336
H   88.254448   44.896759    0.339300
H   36.719223   93.275085   32.828686
H   98.344650    8.516973   62.619034
H   38.359470   79.350960   19.206259
H   41.685295   16.230091   15.186245
H   91.473625    0.130135   18.296043
H    7.005080   21.328817   54.989143
H    0.605648    0.972072   16.637127
H   63.370842   92.395370   22.556137
H   33.331905   46.681694   71.590172
H    5.282866   62.568916   23.453808
H   83.905525   55.827564   51.216129
H   66.737953   52.418983   71.992889
H   81.162766   80.394379   51.443951
H   16.561516   35.950516   48.772884
H   47.241562   75.377350   20.711018
H    7.759741   40.227348   93.691406
H    0.761040   35.555504   16.336376
H   59.072220   24.780136   36.230892
H   57.985687   29.402943   63.832214
H   46.141369    7.705119   76.242241
H   46.300175   34.083256   90.903725
H   15.939475   52.335609   38.959263
H   13.695044   95.540817   58.590137
H   11.403895    1.004946   25.348627
H   44.646873   42.301121   60.294563
H   12.234388    0.962239   91.911034
H   85.608841   68.790970    8.241866
H   27.868568   69.168533   67.435059
H   59.427219   71.003693   93.640869
H   12.891710   38.959419   14.610757
H   66.375702   10.003071   77.543243
H   63.401043   49.333679    6.986143
H   22.217108   25.680519    5.647992
H   17.429388   99.536064   56.026642
H   34.939804   81.536629   96.956306
H   28.687372   52.153030   60.735207
H   80.311798   79.645973   14.112100
H   60.863434   82.712456    6.295501
H   30.258793   42.106544   14.333658
H   16.348179   44.883675   84.313850
H   90.561333    7.646172    3.844243
H    9.355376   44.922676   70.192574
H   59.468018   86.845314   17.554895
H   20.884642   48.754181   94.927330
H   26.784904   53.312504   25.155464
H   76.423088   80.630898   29.843294
