100
TIME:    5.401, STEP:  5401
H   52.074623   26.722244   94.201248
H   51.312355   97.534988   18.655453
H   72.596725   62.473495   59.947552
H   82.383148   10.128704   44.116135
H   46.794785    5.671416   19.261803
H   44.268009   95.356789   13.625132
H   69.902458   26.038792   12.818315
H   95.378342   55.856205   12.291425
H   20.861046   67.009247   60.114464
H   27.244570   93.933723   19.186346
H   97.867172   83.563629   19.498180
H   49.701187   94.415047    8.480288
H   99.417984   34.981834   88.351250
H   87.655937   88.428474   68.259560
H   46.195641   87.588608   91.150940
H   84.360916   39.337906   84.710663
H   89.790749   39.204571   65.062683
H   16.564375   32.024250   12.299482
H   29.390842    4.930279   47.906765
H   47.003372   91.117958   84.057838
H   43.773720   18.530418   10.652271
H   80.179474   51.253891   59.333237
H   13.632558   50.696236   77.821014
H   17.226868    1.439913    5.947381
H   36.412628   57.834396   76.427467
H   21.925516   66.993271   82.531876
H   96.344345   17.963314    7.129570
H   76.820625    8.540108   45.302032
H   28.610847   39.112675    1.864745
H    8.092079   57.165001   12.752739
H   28.618034    6.374110   82.069008
H    6.779714    3.290201   99.266457
H   50.797024   73.319572   84.361687
H    6.306155   78.753349   44.215034
H   46.517578   50.645950   53.610329
H   42.137012    8.457951    2.446090
H   97.825531    6.738564   34.042889
H   40.758465   60.115589    3.575984
H   17.093479   63.738335   20.915155
H   54.478992    6.559340   62.975018
H   66.131592   41.503685   69.590919
H   46.209373   54.258705   56.539364
H   57.762814   95.888138   91.594063
H   34.471424    3.298399    8.817586
H   88.158867   18.796860   18.288675
H    8.406145   65.932632    5.103327
H   83.929977   18.562733   77.310463
H   56.527859   50.998520    2.761217
H   22.907402   85.139038   29.025394
H   39.152958   12.938025    5.912050
H   43.132557   48.212006   10.362205
H   67.610985   62.567921   19.495895
H   20.904461   53.325562   89.187431
H   51.614914   19.079666   70.147728
H   10.759083   31.922499   46.286404
H    0.322642    6.852395    8.764023
H   38.651436   33.703346   69.667473
H   23.885807   66.829857   74.437729
H   16.242643   66.974648   96.845131
H    2.609480   42.927410    9.993294
H    0.399396   27.400917   93.291893
H    7.225231   77.670334   50.977341
H   40.734364   38.728928   63.107666
H   13.916141   71.184677   80.503220
H   46.698196   29.474850   98.540230
H   69.554039   73.773399   65.532600
H   54.236328   35.089390   27.823109
H    7.281749   26.426664   24.401632
H   26.086920   61.704918   21.490829
H   39.809364   19.796398   90.360168
H   50.526894   27.916550   97.358131
H   28.630283   72.276230   52.058434
H   54.836227   51.149513   23.265945
H   11.313435    7.590159   82.244743
H   22.575628   36.340290   10.830250
H   53.343475   53.727104   32.511036
H   57.331493   58.424259   86.567711
H   85.729126   97.561836   12.715890
H   20.511196   37.654285   77.943001
H   34.651794   14.800336   55.620239
H   16.560823   85.157486    2.794532
H   46.571106   79.497147   35.147507
H   59.501419   97.443176   44.308025
H   21.730471   74.334274   70.118347
H   89.344856   11.048400   24.185905
H   26.986752    7.441043   16.845230
H   27.875311   10.656235   81.084000
H   42.891930   72.880859   39.577751
H   67.769394   93.453621   84.017586
H   88.817627   87.063522   17.290644
H   45.053856   65.068436   47.521038
H   77.918205    1.686527   36.437592
H   31.667864   89.576881   36.672199
H   69.253029   40.845531   90.980339
H   63.211388   65.941917   40.194523
H   40.022064   82.452362   88.480103
H   33.895988   77.633080   26.572845
H   26.690168   62.223969   69.605095
H   51.421844   60.131886   92.646172
H   74.687119   40.035549   77.445618
