100
TIME:    9.129, STEP:  9129
H   99.965485   84.848915   90.788162
H   48.355148   99.549957   53.718533
H   36.690014   30.680222   16.179867
H   83.008881   56.535942   39.771111
H   13.395506    4.486820   18.181160
H   86.453247   91.317970   82.821625
H   74.518135   77.772255    4.352871
H    2.364899   78.376053   70.000053
H   29.219627    8.575923   25.448790
H   25.413881   47.463917   65.157997
H   51.097687   33.566025   60.396828
H    7.411171   81.280296   43.116478
H   61.623627    9.422567   17.892891
H    3.068480   76.937752   51.961857
H   91.486824   54.585548   11.887939
H   34.466660   13.273339   75.253967
H   90.007057   85.783211    4.437238
H   96.283554   50.621742   83.069901
H   87.453873   61.328144   44.312069
H   46.563122   11.949465   37.877342
H   22.548912   47.397011    9.467737
H   37.586468   56.202866   41.859589
H   63.856895   20.382109   71.158875
H   70.842911   46.037567   29.074900
H    3.079748   62.186195    3.957840
H    4.562025   56.980576   31.802130
H   74.875740   62.997387   81.100815
H   62.262154   82.550568   68.530754
H    9.672217   77.346397   25.638813
H   51.039070   64.896683    9.118172
H   75.340416   40.670780   87.121674
H   42.167866    0.289466   54.146812
H   13.390871    0.561820   20.209372
H   63.824127   37.104248   87.161705
H   53.760185   68.476601   80.468857
H   66.205841    0.454382   90.726601
H   55.388260   70.211189   27.794699
H   86.673500   91.887260   66.648155
H   59.735943   82.512474   59.644409
H    3.344057   57.557663   56.286194
H   11.349237   69.418472   57.419765
H   30.871597   77.402542   46.011990
H   89.851349   18.250610   60.868824
H   96.428749   65.879372   73.318672
H   64.781662   71.719032   37.305439
H   60.286797   37.032513   20.248896
H   13.063800   21.304632   13.098753
H   56.744808   89.395737   33.427937
H   31.879814   76.386024   80.315216
H   17.401617   69.685509   45.233448
H   42.874752   88.297157   49.662766
H   48.798733   16.635212   74.773964
H   98.226707   74.941772   72.675583
H   65.280853   58.260101   34.652962
H   13.930202   58.627602   77.987106
H    4.965918    2.930902   81.854080
H   74.990112   26.133263   24.231436
H   46.291443   14.765684   78.412621
H   10.263500   24.501783   10.651720
H   56.597836   29.473454    3.960106
H   35.565807   54.029224    2.628469
H   74.911858   42.970627   82.297218
H   93.828262   84.336205    7.467529
H   69.913025   91.492538   79.288086
H   94.668213   31.725552   45.712940
H   40.539894   88.444054   85.962090
H   55.131882   63.972630    7.809749
H   49.763336   39.635201    2.621597
H   11.889151   93.834625   87.677643
H   15.430236    7.171495   82.481155
H   32.138958   74.262474   52.646706
H   21.516527   48.481834   25.198174
H   11.764036   66.751183   27.681751
H   29.244602   71.644508   60.739326
H    2.224823   41.757198   93.468658
H   41.473755   92.655998   81.663071
H   95.890457   35.662418   52.648674
H   60.869564   53.804115   18.609871
H   99.283440   26.703968   19.536425
H   51.830376   11.719151   34.449638
H   89.530815   23.726053   25.611305
H   26.329185    3.677089   23.272139
H   95.302986   59.787388   99.342110
H   78.209114   93.347267   29.624294
H    7.824860   77.845993   62.799484
H   41.188343   44.377769   75.728622
H   76.860115   39.599495   58.849144
H    2.848248   74.563698    0.924480
H   45.138187   85.884468   53.527351
H   59.213467   33.684700   50.555222
H   97.618950   66.368225   26.249901
H   53.752453   82.067673    7.472913
H   70.640030    1.428898   24.964167
H   29.547968   67.018784   42.351986
H   98.754303   32.009495   25.860006
H   47.939575   35.237061   95.923996
H   37.984917   91.573494   12.170847
H   20.656229   38.163334   95.613670
H   73.828575   76.223427   80.388252
H    6.249640   44.368649   18.314068
