100
TIME:    7.810, STEP:  7810
H   89.164055    5.806970   91.995743
H   84.783829   28.076260   70.551834
H   14.017687   35.786118   31.662056
H   82.787491   10.878078   12.069462
H   25.214701   98.763283   53.943726
H    6.904191   92.746941   52.197037
H   43.647663   88.705994    1.205327
H    6.035698   64.265038   91.105247
H   61.643166   35.393814    8.474834
H   61.440956   28.525026   13.512001
H   73.787857   80.494980   87.450684
H   57.757217   15.165297   37.004250
H   45.732002   89.257095   48.970173
H   68.376732   81.003273   51.585354
H   75.466255   72.405136   75.317902
H   87.499573   28.637939   84.742462
H   96.073189   98.542542   84.363464
H   68.079849   14.804216   28.793079
H   66.904877    5.990811   74.822113
H   82.101303   39.958874   48.073708
H    0.820257   78.707397   45.265820
H   11.132646   54.451874   54.184631
H   81.467445   31.104418    8.896365
H   93.396179   30.258516   27.034954
H   50.253487   66.789139   94.218544
H   10.782558   95.864670   55.927391
H   88.613968   17.823957   54.933086
H   73.555962   20.984091   24.928892
H   80.991600   57.676197   87.989708
H    0.463977   97.541611    4.261571
H   23.427546   22.393764   91.476738
H   58.885433   36.729031   76.253258
H   20.482500   97.066078    1.383433
H    8.092483   57.982796   42.727783
H   86.586250   68.343437    0.217533
H   51.547474   97.141144   94.872627
H   28.879951   18.516294   23.862638
H   41.190407   16.023861   73.570625
H   15.408418   11.250940   87.465569
H   27.579075   81.037537   52.509750
H    1.493906   24.163183   26.344694
H   42.029747   72.230072   78.673851
H   78.500092   10.337727   65.596718
H   80.648422   43.732933   44.355564
H   79.195686   23.750263   24.433041
H   77.311485   11.878608   14.890257
H    2.751964   49.572823    0.431783
H   56.664303   75.810455   51.816082
H   93.325813   85.625984   32.929436
H   89.712646   49.606632   37.457069
H   42.965321   15.638407   35.755463
H   84.694290   39.028721   61.358978
H   70.875008   67.293762   49.278542
H   95.832642   79.777847   76.450333
H   18.951141   43.036140   66.776733
H    3.323105    4.318361   26.755966
H   91.372406   64.192177   98.783333
H   44.506760   39.329536   12.386874
H    6.232088   68.769554   11.912186
H   43.638824   28.090656   41.475609
H   52.361614   15.370792    5.467706
H   21.725777   55.247696   41.976845
H    4.280957   74.342560   97.915314
H   79.339043   84.307434   15.096305
H   42.315430   37.072498   22.880442
H   21.567238   54.015068    7.972250
H   60.957642   18.374897   44.129498
H   40.875725   64.199638   39.565765
H   46.152298   88.609550   70.404236
H   88.641792   40.919903   85.278717
H   74.029533   64.009857   68.466011
H   30.133202   92.276756   28.516378
H   97.764023   31.998171   61.504070
H   58.276852   55.123753   39.109375
H   38.686127   39.815006   93.461243
H   10.288449    8.120129   70.414436
H   76.097374   49.825844   29.252390
H   98.908325   40.045498   45.757465
H   36.030792   30.578289    4.815916
H   16.515656   83.571465   48.082680
H   63.708717   10.080392   46.775940
H   27.352959   95.119614   33.619877
H   11.874223   37.728916   73.728561
H   87.464760   80.477661   50.093777
H   72.048019   60.357098   90.661186
H   71.546432   95.927765   84.133224
H   88.767021   35.501854   95.954201
H   81.635307   80.110535   14.600403
H   17.763744   59.323814   64.315071
H   75.830383   87.950943    3.406763
H   43.640095   95.149605   98.394699
H   56.159809   82.866226   82.337822
H   86.089630   61.859615   22.963869
H    2.072723   86.996544   53.415066
H   21.561790   50.158043   95.552704
H   38.995590   87.324036   64.052254
H   42.680992   15.879386   88.028221
H   23.202211   72.897148   22.095736
H   36.662529   70.527672   90.867561
H   24.320742   78.215317   45.378590
