100
TIME:    2.262, STEP:  2262
H   64.352448   14.584304   97.075089
H   38.348640   27.386396   20.686178
H   18.636557   36.640884   96.783241
H   81.856277   39.456505   16.174858
H   74.910522   54.066792    4.373270
H   92.941414   98.757500    2.758780
H   34.419262   14.077995   67.344200
H   42.097557   84.293640    0.503946
H   98.023659   68.811295   57.703297
H   13.026217   48.862328   96.265892
H   89.849304   57.258961   21.862524
H   69.508057   37.072891   31.916853
H   99.377220   24.853416    0.305028
H   43.080315   98.103737   29.379292
H    8.013939   67.976288   42.040321
H   10.574154   13.886436   45.276138
H   42.206024   31.586678   79.302856
H   49.482574   84.699471   21.126045
H   80.495323   73.248245   82.533234
H   31.576309   57.776028   70.340126
H   30.046341   31.028172   95.849640
H   79.240494   47.086823   26.648056
H   55.543068   76.225517   67.631729
H    8.877251   63.810856   39.078522
H   48.681389    6.777367   53.251282
H   36.287113   60.206249   77.154243
H   67.025002   48.449368   44.853275
H   41.680809   62.022228   41.541683
H   60.355820   54.318184   50.245934
H   87.728951   34.855698   63.211056
H    5.083011   24.891386   30.419971
H    8.581255   90.016228   89.859413
H   29.689491    2.984046    1.575778
H   73.675957   66.423965   76.456833
H   24.545128   87.930176   62.466949
H   69.226578   62.177364   12.863946
H   96.754547   21.697023   86.702148
H   70.496971   17.553051   82.064308
H   49.594376   32.130127   25.107397
H   50.137882    0.421853   16.003237
H   80.658134   33.798328   95.636276
H   28.325531   13.376698    9.072308
H   30.724768   77.064484   64.858788
H   34.914650   50.682686    1.900730
H   60.442875   42.643124   49.676735
H   48.904644    6.060963   92.354897
H   59.402058   47.853302   47.169670
H   56.360218   18.672754    8.537621
H   31.150404   45.110043   54.243477
H   73.327782   65.177895   25.457539
H   43.372044   51.262199   77.267014
H   15.061804   53.843006   25.565647
H   55.802475   35.124573   71.497368
H   24.310986   70.302925   31.631411
H   60.683517   56.804790   19.600050
H   96.396500   10.154696   15.622986
H   39.652325   24.278206   71.122444
H   57.623627   63.269638   55.292068
H   68.675026   34.344402   37.828239
H    9.750875    1.651801   99.273933
H    2.388948   73.377266   38.032200
H   18.629795    6.889109   93.005402
H   27.662457   52.902046   78.376144
H   98.366394   54.099213   65.730568
H   22.104034   80.182251    6.216470
H   62.387001   29.822212   79.932442
H    6.083712   26.566557   76.271439
H   24.114128   46.903748   74.339279
H   69.641411   87.253441   18.363167
H   76.210754   61.916748   96.970001
H   50.204140   41.493507   35.017010
H   87.454895   76.453644   22.234350
H   59.505127    6.419842    3.746652
H   80.410637    6.235074   68.771172
H   71.230370   31.862257   72.872787
H   79.134331   52.546478   43.725407
H   72.330597   30.491484   31.054487
H   38.253201    2.813503   39.362209
H   69.982269   46.874523   42.915634
H   88.592537   85.760986   26.047768
H   55.147717   52.683086   15.183376
H   11.043095   59.000137   97.629982
H   60.919750   45.012512   45.344151
H    5.774609    5.723849   56.821136
H   42.189270    7.393963   28.476807
H   99.228210   92.141365   98.863258
H   18.228598   38.887100   31.404295
H   92.368896   24.193176   72.223701
H    2.624579   68.227654    9.693701
H   66.348221   16.209625    5.079877
H   16.593018   95.573532   81.231033
H   45.654285   65.627251   76.622704
H   30.417732   95.410873   93.909378
H   65.859596   50.440456   79.333076
H   17.482517   47.113976   68.065117
H   80.753494    6.407887   50.613770
H   83.055618   97.492226    7.099665
H   15.170428   35.497253   19.842789
H    0.957138   46.600887   55.572563
H   79.719162   20.601742   79.822662
