100
TIME:    3.348, STEP:  3348
H   90.911041   14.992567   96.080826
H    8.139086   86.268143   89.190872
H   37.303841   14.772601   84.040108
H   82.038559   94.711723   56.649059
H   65.183319   41.114468   74.926834
H   76.105232   97.580956   10.309299
H   77.500847   87.410454   52.270897
H   56.740097   78.246109    0.791000
H   71.327705   64.396835   89.342201
H   83.349297   64.455681   38.794586
H   88.832230    0.956772   17.253515
H   28.056686   91.508774   54.614555
H   30.296474   59.148743   92.365196
H   89.307884   94.756386   12.023739
H   21.225204   70.970505   89.836891
H   66.908600   18.900909   55.128273
H   54.880928    3.415798   78.169998
H   72.687218   31.887550   83.474304
H   97.414360   18.805292   39.747410
H    2.320129   34.717419   44.280022
H   65.601654   22.913200   66.369751
H   83.356369   48.528503   34.165131
H   41.043404   67.393150   36.561020
H    7.976074   76.835693   58.422985
H    9.840896   20.645897   61.265541
H   31.306936   27.850752   75.362495
H   73.377762    3.303707   66.402992
H   50.046879   12.713013   77.439751
H   83.969559   52.848587   98.911293
H   29.369816    7.976844   49.544739
H   47.820873   22.277437   44.495842
H   77.152016   60.007172   89.322945
H    6.185524   23.526451   99.411232
H   19.562233   66.898537   30.704296
H   97.548111    5.836963   28.598228
H   63.650875   47.488415    9.130261
H    0.916194   81.924301   72.274651
H   25.613098   97.677437   58.699375
H    3.751040    8.470797   19.866095
H   47.848919   98.754227    1.447498
H    6.440108   71.059891   21.223127
H   30.722008   62.120316   60.092972
H   40.079121   83.576904   43.302959
H   65.566620   68.883759    8.083999
H   66.240395   99.797913   42.608578
H   34.893826   26.774769   96.762794
H   67.890915    6.912896   57.601143
H   56.418217   29.854067   75.733208
H   62.892242   55.167313   10.920253
H   96.096397   81.699226   49.500149
H   43.289188   46.415955   88.717606
H   67.839249   53.070389   54.272999
H   78.325539   41.421570    8.422218
H   99.164146   52.583138   79.554840
H   74.220413   51.994637   28.823420
H   97.755325    9.012869   78.652985
H    8.501309   92.941368   74.410072
H   76.757317   60.710388   27.319450
H   54.325531   80.229630   54.456196
H   38.085045   85.126343   68.385506
H   70.895027   22.875298   53.358540
H   80.087547   96.779373   43.868858
H    1.355543   78.821465    3.888076
H   72.941521   60.006790   36.242878
H   65.212425   93.444527    7.353532
H   95.672371   75.833870   44.143692
H   18.952267   64.108887   28.704370
H   49.096565    9.012523   26.256361
H   23.765587    9.220390   50.252728
H   98.217102   16.536940   94.683197
H   15.717855   67.601845   21.987068
H   97.909714   40.411621    1.746162
H   88.695267   52.699245   75.906242
H   56.512051   37.511284    4.228014
H   23.592531   33.411282   55.199253
H    4.804159   22.147665   70.650604
H   70.932411   36.364159   50.260532
H   89.275452   31.802645   99.336227
H   22.062071   43.684597   55.037354
H   35.333199   26.614067   32.487930
H   76.395248   63.918255   80.091110
H   92.528183   66.092545    6.819506
H   29.626783   63.141235   48.780308
H   80.486740   98.654266   57.627914
H   89.309067   39.465542   23.201256
H   74.239075   32.031242   74.278442
H   90.760063   59.926048   83.188812
H    9.849016   37.245270   60.924507
H   25.164379    7.761290    0.808746
H   70.331116   71.531082   43.899918
H   61.036560   54.212955    4.165444
H   26.010920   47.293770   97.319939
H    0.068021   27.973524   77.910423
H   70.825386   16.313183   52.556282
H   98.704079   49.836803   93.021111
H   70.452652   63.522346   94.520195
H   96.854218   59.815426   44.643242
H   19.156195   44.743896    2.465519
H   49.222374   51.282207   64.607841
H   47.167332   92.719246   75.216751
