100
TIME:    7.297, STEP:  7297
H   23.855761   52.850899   92.465408
H   98.952072    0.276393   38.204411
H    5.199561   98.879906   37.685406
H   82.701385   32.014984   40.189434
H   29.811552   57.644070   67.853653
H   14.860129   93.302711    1.392134
H   70.533051   54.067036   61.088055
H   46.356483   19.885532   38.207718
H   74.253685   84.716522   40.766827
H   75.452644   21.159105   93.424812
H   21.505859   59.853184   36.865654
H   77.335693   89.451675   73.520744
H   78.444206   20.307751   99.951210
H   93.777809   82.584480   12.544407
H   69.235359   18.228813   99.990997
H    8.126350   73.506653   27.326445
H   37.325844   64.609207   37.663052
H   57.110699   39.766891   46.574188
H   58.915226   84.471344   47.795208
H   95.925125   50.851200   13.146250
H   31.262390   29.777924   59.187489
H   61.950836   53.770859   97.871353
H   88.316734   35.276192   23.574896
H   41.061478   24.121553   65.136200
H   68.601753    7.470726   90.429909
H   13.201336   10.986462    4.202075
H   32.850140   39.149384   44.753086
H   16.842339   97.039009    7.971548
H   69.837044   11.133120   12.239267
H   80.792847   10.239019   63.479118
H    3.237189   76.391251   32.063591
H   26.494167   50.901188   23.744194
H   84.348030   34.598610   55.168343
H   86.417046    4.996246   64.340225
H   99.353325    7.184711   69.008240
H    6.953644   56.961258   96.485146
H   79.675888   37.304321   83.440460
H   62.391891   25.413258   37.370117
H   37.063885   22.427023   37.178467
H   75.897057   29.062349   12.146874
H   36.552826    6.562427   14.258776
H   85.262459   70.218338   52.483891
H   74.085236    7.260439   28.543850
H   13.406298   35.122398   94.197746
H   23.695450   43.988934   80.533882
H   83.933769    2.095619   12.806116
H   98.742477   21.673965   95.507851
H   56.632992   70.526718   20.074520
H   78.327827   28.112537   53.395111
H   78.941650   41.798443   73.326759
H   43.000546   65.165283   30.347080
H   59.762875   86.631378   95.033997
H   60.235699   64.319214   79.070992
H    7.712631   88.145721   53.812454
H   59.797012   98.078621   62.415249
H    2.684164    4.857987   44.219696
H   58.848690   78.994469   49.992912
H   82.706223   87.775536   25.601820
H   65.774467   47.091434   51.294640
H   77.491524   88.659531   56.066551
H   20.000933   39.227226   45.463898
H   39.933144   60.022629   65.189865
H   69.454979    9.348567   33.093262
H   44.111919   81.512924   29.025738
H   21.952480   78.045563   75.106697
H   53.081146   79.517906   77.639435
H    2.116085    0.639805   19.361471
H   76.311989   34.861198   15.041396
H   20.582924   25.470444    2.576574
H   78.223045   15.154800   86.366776
H   90.319099   98.913834   74.618629
H   72.376564    9.310481   90.913643
H   31.213667   57.371853   74.655579
H   69.570320   87.592224   69.590668
H   13.975320   39.059628   54.565113
H   98.160515   75.242943    4.934480
H   29.506447   94.226143   20.154577
H   74.806656   73.588249   17.424891
H   11.431876   32.085133   99.091316
H   41.672867   11.517102   92.278206
H   53.665703    4.773171   16.114609
H   88.857735   91.792816   76.536705
H   79.427162   29.149694   24.872383
H   52.170704   36.579586   96.949577
H   97.026398   92.450462   40.389992
H   83.350693   77.086349   48.509094
H   54.504917   72.801125   71.492455
H   73.384850   21.160311   19.919365
H    7.116077   87.887306   68.510750
H   21.185659    9.056263   85.066788
H   22.646046   67.447166   87.561081
H   18.203005   44.283203   72.560951
H   53.205219   46.466328   83.292793
H   52.492706   55.873375   18.824259
H   30.432598   96.108170   83.764099
H   96.623840    7.581766   90.549217
H   83.400993   86.439713   17.531677
H   24.192423   47.514271   32.395035
H   61.100792   68.312416   33.837193
H   92.456459   91.381607   94.796707
