100
TIME:    5.480, STEP:  5480
H   46.732094   19.477825   94.128922
H   49.130501    1.815741   23.636650
H   73.955261   68.157166   59.019962
H   82.396408    6.873703   39.785576
H   46.087189   12.003588   17.120029
H   43.042675   95.271202   21.448812
H   65.761757   31.373486   18.996218
H   89.169098   62.690472    5.037814
H   18.919075   59.413742   55.141403
H   25.085920   95.068047   22.280119
H   90.518784   86.742386   11.888512
H   46.685768   98.374931    2.857130
H   94.376816   30.204544   80.501396
H   83.744270   88.184975   74.271111
H   47.156380   80.531937   87.353790
H   81.184570   32.428299   78.153046
H   83.438057   44.429569   72.254364
H   18.253805   28.180389    9.561014
H   30.621300    8.244578   52.068562
H   44.875160   89.439980   89.436531
H   39.085747   10.665497    8.508087
H   87.753281   51.358765   52.605652
H   12.577643   50.053734   75.560806
H    9.886616    2.384981    0.080102
H   33.587067   51.569099   77.010902
H   21.565390   64.658325   75.102722
H   89.532379   14.679321    8.697142
H   70.154518   12.227562   47.913628
H   30.328606   46.280247   98.130402
H   11.121210   55.209770   19.032803
H   31.727177   13.458055   75.818779
H   11.767710    1.107668   91.953026
H   56.361958   67.539467   91.478630
H    9.644181   71.513451   40.886803
H   44.553909   44.674179   58.420654
H   49.004429   14.645647    2.197655
H    5.402687    3.845198   40.267803
H   37.493519   58.669659    9.150652
H   13.758719   62.016960   13.259680
H   47.038387   99.163536   69.190392
H   60.732407   44.214127   71.452126
H   39.109306   57.804520   60.250324
H   58.443287   96.361877   97.300636
H   29.427242    4.624463   16.541632
H   81.305916   15.680167   25.049109
H    7.386686   67.439438    5.424277
H   84.547165   22.859238   78.068687
H   56.532078   51.812195    7.649228
H   25.216431   78.595886   25.874062
H   40.809841   14.140455    0.386846
H   43.126530   40.585159   11.195016
H   71.450325   55.237011   14.309471
H   22.543262   53.783630   84.599510
H   49.785652   17.790443   73.633873
H    4.468815   38.845966   46.958439
H    0.421041    6.769295    6.074677
H   43.659454   31.423851   77.181007
H   18.003540   59.369362   72.402939
H   22.472982   70.312523   90.780540
H   97.396164   48.999836    7.746346
H    5.382854   23.727024   87.132072
H    4.421594   76.935013   47.402596
H   46.097988   33.338181   57.690399
H   19.340942   71.615021   78.358734
H   49.834160   23.165253    5.897296
H   64.700920   69.846062   70.203697
H   47.898102   37.820324   31.637436
H    1.824552   30.944971   28.178289
H   30.024504   56.028481   16.535851
H   41.409592   23.769844   90.193817
H   48.018364   22.541473   96.410652
H   22.116364   69.654388   57.842758
H   49.685364   47.242065   21.240196
H    9.574581    2.590353   77.550743
H   26.384531   36.452999   16.819199
H   55.211311   58.790573   27.195356
H   64.504448   51.576733   87.964821
H   89.440689   92.396507   17.078882
H   24.299305   37.422237   78.824181
H   30.778194   10.497050   48.814301
H   18.106806   85.974777    7.516097
H   52.500084   80.009460   28.539103
H   64.498528   98.764343   51.831806
H   27.165518   81.094406   62.902653
H   85.498283    6.106832   16.527718
H   25.168339   10.342849   22.331207
H   33.151543    4.912215   84.851013
H   44.162468   66.559509   38.758652
H   69.408798   89.054955   83.371468
H   81.833282   83.813644   20.114698
H   48.286858   69.334503   49.189373
H   83.763405    7.627937   37.942589
H   36.731934   91.946785   42.781391
H   76.888313   45.638378   96.307198
H   61.845619   58.865520   42.009922
H   46.547134   79.332672   84.399673
H   27.625479   82.166756   22.029526
H   26.980078   62.896606   68.340584
H   47.658447   60.472424   86.029488
H   79.594482   38.008595   69.835648
