100
TIME:    5.999, STEP:  5999
H   11.634731   71.883324   93.653763
H   34.796547   29.940786   56.362698
H   82.880325    5.496451   52.926052
H   82.483521   85.490936   11.336724
H   41.438553   53.603729    3.048498
H   34.992695   94.708931   72.848015
H   38.562626   66.420128   59.582691
H   48.376724    7.592290   57.386448
H    6.161064    9.514031   22.470861
H   10.906729    2.520318   42.602848
H   42.242661    7.625394   61.894554
H   26.875610   24.389271   65.913673
H   61.258255   98.818398   28.930840
H   58.046104   86.585274   13.766071
H   53.468071   34.172287   62.407703
H   60.317184   87.034462   35.071991
H   41.703285   78.757530   19.500982
H   29.352720    2.927685   91.569374
H   38.703297   30.018724   79.412216
H   30.893616   78.416298   24.772394
H    8.287544   58.998760   94.420845
H   37.510315   52.047745    8.407974
H    5.647424   45.832741   60.712097
H   61.665310    8.593721   61.536549
H   15.025960   10.408478   80.843849
H   19.199495   49.314827   26.298832
H   44.778648   93.105240   18.995504
H   26.363876   36.452736   65.070572
H   41.613625   93.368469   73.596375
H   31.020702   42.364647   60.291794
H   52.155014   59.996624   34.757149
H   44.537693   86.766068   43.906563
H   92.918327   29.566496   38.234253
H   31.574448   23.950066   19.022760
H   31.653297    5.440836   90.025925
H   94.120743   55.296288    0.565442
H   55.180550   84.838501   81.163124
H   16.043613   49.170444   45.773693
H   91.851898   50.708183   62.964592
H   98.155014   50.577465   10.022852
H   25.262188   62.020699   83.679543
H   94.650833   65.128220   86.218895
H   62.913738   99.474167   34.788353
H   96.288055   13.335897   67.285484
H   36.287067   95.203140   69.460922
H    0.689325   77.338577    7.532794
H   88.601852   51.084305   83.049934
H   56.559795   57.157730   39.762028
H   40.385872   35.612480    5.170484
H   51.694935   22.039968   64.084763
H   43.089672   90.478470   16.666149
H   96.673332    7.076735   80.239021
H   33.309566   56.792969   54.457355
H   37.768097    9.321521   96.536522
H   63.145683   84.328766   51.373455
H    1.067507    6.223357   88.406677
H   76.561745   16.448433   26.542381
H   79.357819   10.355867   59.035141
H   63.403946   92.241096   50.938484
H   63.145241   88.890900   92.984764
H   38.122578   99.591568   46.666088
H   86.001686   72.104233   23.917877
H   81.333015   97.921669   22.101013
H   54.981102   74.442215   64.270279
H   70.435013   81.714371   54.229923
H   32.817772   44.044945    0.891056
H    6.257158   55.761524   56.694168
H   65.973778   60.626621   52.989491
H   55.892933   18.736443   83.985931
H   51.922478   49.875229   89.100952
H   31.538219   87.228821   90.186073
H   79.321732   52.429886   95.840256
H   15.845200   21.571617    7.931793
H   98.150246   69.741234   46.712944
H   51.406040   37.193455   56.163101
H   67.481163   92.052299   92.273102
H   11.624907    6.592203   97.143303
H   13.824260   58.461609   45.742828
H   49.185741   35.897770   84.613197
H    5.328772   82.225471    4.102008
H   28.263323   91.344070   38.534748
H   91.454010   83.375168   85.124413
H   97.324074    7.443363    1.257280
H   62.870003   25.506691   15.501603
H   60.227760   73.644981   66.216629
H   13.222057   29.406612   58.371994
H   67.814369   67.176613    9.598989
H   52.509422   25.027254   33.377480
H   80.179062   60.157387   79.126717
H   35.946369   62.462894   38.666954
H   69.526451   97.360947   60.149700
H   22.164148   46.661194   47.829849
H   70.000961    7.518011   82.916458
H   27.047928   77.125557   31.302294
H   52.873039   12.375202   53.936405
H   89.414368   58.837494   57.592804
H   86.430168   11.950891   92.181107
H   26.697870   83.288696   58.449707
H   22.934357   62.709629   42.558434
H   11.832882   24.691185   19.837536
