100
TIME:    9.683, STEP:  9683
H   62.500153   34.044167   90.280960
H   33.054550   29.571606   88.649101
H   46.212734   70.537788    9.676085
H   83.101868   33.711845    9.403726
H    8.431265   48.892136    3.160732
H   77.864624   90.717781   37.685677
H   45.483509   15.180095   47.676388
H   58.821594   26.304623   19.132401
H   15.601250   55.311005   90.577003
H   10.280237   55.418537   86.849342
H   99.565887   55.857559    7.031688
H   86.267815    9.049242    3.682971
H   26.296997   75.888954   62.836945
H   75.637421   75.230171   94.120018
H   98.215706    5.099525   85.244652
H   12.190151   64.818344   29.267513
H   45.457802   22.426353   54.870041
H    8.132346   23.663948   63.863876
H   96.084763   84.566940   73.502258
H   31.638699    0.184504   75.596275
H   89.673279   92.244514   94.429642
H   90.698990   56.938309   94.681412
H   56.460197   15.878548   55.308807
H   19.367199   52.665009   87.930542
H   83.265244   18.249809    8.047161
H    1.948670   40.648666   79.668846
H   27.102703   39.966183   92.090195
H   15.518515    8.409413   86.840752
H   21.718822   27.609289   99.452194
H   72.282387   51.185318   53.159126
H   97.141655   90.349243   43.290955
H   77.147903   84.980484    2.860275
H   52.415779   60.027939   70.118065
H   87.231506   86.333580   63.821953
H   39.972740   26.530983   14.173862
H   14.364058   43.848240   88.985207
H    8.525037   49.923103   71.447891
H   63.773365   81.751671    5.744445
H   36.349697   70.441063    5.958088
H   51.162601    5.692227   99.872513
H   73.487122   88.430099   70.471764
H   84.183144   79.576706   74.290520
H   94.619049   21.574898    0.886673
H   61.059498   75.178078   27.485737
H   16.719854   49.851749   84.709946
H   53.139473   47.599224   22.499605
H   17.395435   51.435917   18.418612
H   56.778622   95.101761   67.706345
H   48.072243   30.504223   58.217003
H   29.029226   78.121971    6.497037
H   45.198338   34.990196   51.875031
H   75.722717   65.229523   38.407570
H    9.717445   78.154053   40.499077
H   52.452446   49.219223   59.100105
H   69.819954    7.176229   82.695633
H    5.655924    2.348147   62.994614
H   10.112921   10.147554   76.921288
H    5.040103   62.447258   64.143333
H   53.957912   47.912712   68.122292
H   20.041241   72.056503   88.203041
H   70.515472   28.267275   59.439533
H   55.249321   37.814072   57.231834
H   31.447422   46.545319   69.483932
H    7.953734   94.510391   64.249542
H   16.657063   87.477669   97.303856
H    6.507941   60.902977   18.719385
H   10.683052   83.127960   34.558117
H   11.494809   71.318428   29.106003
H   39.501923   54.027710   52.932949
H   26.681671   34.996098   81.306137
H   14.545280   36.565823   46.002357
H   75.895042   30.087303   65.804474
H   75.642563   39.349163   13.475864
H   17.050617   36.583241   27.822176
H   28.909998   42.572948   35.473072
H   54.572250   28.161854   44.385941
H   46.206001   87.711838   62.475716
H   86.896980   17.581429   49.206841
H   25.848783   25.076694   25.720064
H   24.661819   81.540077   86.722206
H    0.376454   29.457438   58.723152
H   67.899315    7.273469   76.923454
H   30.344141   69.052284   52.103680
H   16.324444   40.754837   79.024651
H   80.850159   43.189720    9.095996
H   28.436436   64.729103   14.200273
H   13.860598   99.318855   85.265923
H   11.757313   30.234144   95.183975
H   56.634769   55.038124   48.996346
H   10.231235   10.890190   70.358597
H   20.291586   96.284698   37.949364
H   94.742844   23.733450   18.026972
H    6.152536   18.052412   67.805840
H   80.725868    0.449530   83.336418
H   89.176636   82.385567   38.589760
H   93.697662   13.361416   67.309341
H   94.011650   23.365593   80.309692
H   19.586878   65.573624   84.489037
H   47.437157   78.615730   33.984974
H   40.659378   30.154034   64.946793
