100
TIME:    2.801, STEP:  2801
H   27.901752   65.155357   96.581619
H   23.355400   56.611786   54.686207
H   27.901442   75.419342   90.458611
H   81.946747   17.249022   86.630920
H   70.082748   97.270020   89.758667
H   84.585335   98.173561   56.138943
H    6.170705   50.475410    9.494788
H   99.733215   30.924044   51.016094
H   84.774010   16.988800   23.773674
H   98.297981   56.601570   17.373148
H   39.712830   78.946930   69.942215
H   48.935600   64.090332   93.551247
H   65.089333   92.242844   46.732063
H   16.391853   96.442390   70.398277
H   14.570911   19.830660   16.130335
H   88.901779   66.743378    0.533566
H   98.867287   67.233780   28.374430
H   61.000969   58.488029    2.437954
H   88.892525   95.857361   10.930918
H   17.055977   46.331654    7.037697
H   98.061417   77.369293   81.218277
H   30.914948   47.802353   80.747269
H   48.346642   71.841866   52.210815
H   58.798264   70.275299   99.046257
H   29.403469   64.027130   57.227821
H   33.815655   44.147938   26.634043
H   20.545086   26.042299   55.549221
H   96.202080   87.180931   59.360035
H   72.075714    3.220903   24.767057
H    8.396625   21.515579    6.060394
H   26.291483   73.225998   87.772743
H   42.613960   75.121681   39.961449
H   67.657318   63.547752   50.133156
H   96.449562   17.027695   53.749023
H   11.145755   47.186066   95.290688
H   16.090393    4.517454   11.011380
H   48.451012    1.956224   29.173033
H   48.219749    7.687795   20.100719
H   26.841331   20.387594   72.874603
H   99.370911   49.963448   58.412029
H   43.822910   52.291088    8.336638
H   79.883232   37.568916   34.393921
H   35.367489   80.296707    3.793257
H    0.496941   59.717285   54.600304
H   13.689970   21.378712   95.799660
H   41.950840   16.341572   94.542610
H   63.617107   77.165375   52.346985
H   56.389004   24.222227   41.887917
H   46.904411    0.471571   32.740555
H   84.628227   73.377708   87.759186
H   43.330921   99.224625   82.950134
H   41.255466    3.826903   90.181023
H   66.982567   38.249878   40.191841
H   11.830326   61.509781   55.416595
H   17.772255    4.055315   24.172865
H   97.070908    9.588234   97.274155
H   73.822136    8.725219   22.385979
H   17.488129   12.367566   41.409134
H   11.186348   57.118008   96.448677
H   74.180908   43.082653   83.943489
H   36.390358   48.311604   96.008408
H   99.501640    1.871143   68.619797
H   64.224144   16.145926   41.398849
H   35.378830   57.031242   51.095577
H   43.499088   37.132717   56.413574
H   29.275215    3.026919   11.801950
H   62.839088   45.199734    2.293873
H   86.881432   77.729126    0.106598
H   96.502586   48.524330   84.558754
H   87.132874   89.024971   95.835022
H   33.088982    4.819308   28.549549
H   43.011711   58.565384   61.699043
H   24.361444   79.757042   89.928459
H   68.550926   72.127655   36.736794
H   97.219749   32.630878   13.732635
H   91.874062   87.090691    7.458372
H   21.267256   83.775040   40.586872
H   63.576397   67.571388   69.130035
H   95.831833   45.291309   48.931847
H   62.159035   56.406727   79.612595
H   65.694962   58.259289   47.397648
H   51.486885   62.520218   52.559792
H   95.018845   54.010101   96.681396
H   42.854458   51.846771    7.589355
H   15.943675   73.681076   76.226936
H   86.825684   11.938988   36.293255
H   54.227180   99.697395   57.105820
H    1.045485   81.039658   66.614601
H   13.811174   38.216499    5.284031
H   18.692207   94.033401   24.347290
H   38.651093   24.678143   92.613724
H   85.536713    6.158012   86.895088
H   65.001602   11.561611   35.608711
H   17.954655   83.134499   15.676095
H    8.162117   98.832306   80.451195
H   25.272736   85.123238   22.773880
H   40.271835   28.424023   76.101418
H   17.148848   40.086517   11.217928
H   75.280327   48.924305   10.424240
H   13.192856    6.757233   27.909536
