100
TIME:    4.537, STEP:  4537
H   10.503807    5.955358   94.992264
H   75.174660   50.718178   64.179626
H   57.741592    0.314508   70.088371
H   82.238129   45.726433   91.474373
H   54.533554   36.418060   42.687256
H   57.669132   96.292824   28.060213
H   15.186584   67.698792   45.252316
H   63.287041   81.109863   91.621330
H   42.099815   50.079376   14.498579
H   50.855721   81.527962   85.353668
H   78.234344   48.798496    2.723056
H   82.676216   51.106941   69.980492
H   54.551743   87.228416   74.202881
H   30.434944   91.091560    2.506825
H   35.688316   64.764252   32.682415
H   19.101360   14.906584   56.430603
H   59.268593   82.057770   86.409355
H   98.089409   74.061714   42.250439
H   15.933689   68.687790    2.390319
H   70.280785    9.467802   25.232645
H   95.044716    4.543998   34.102295
H   97.346954   50.106918   32.910797
H   25.168541   57.723091    2.540425
H   97.505005   91.095856   70.116791
H   67.314972   26.352669   70.046608
H   25.864115   92.529892   63.778423
H   70.849098   53.880726   89.988503
H   49.722485   68.211533   16.739779
H    9.823684   60.724056   42.705208
H   74.962158   78.548790   44.066750
H   94.614037   28.897385   50.425941
H   52.226116   27.159813   79.251244
H   89.937355   36.533333    6.525746
H   69.800491   57.933746   80.614937
H   67.993652   15.957876    1.001194
H   67.031311   40.786259    5.163921
H   14.956682   38.381821   65.963181
H   76.468529   75.924339   42.604511
H   53.565891   82.564507    4.643569
H   35.858917   87.444527   94.995850
H   25.179611   11.860372   49.235455
H   23.861435   15.480456   15.953575
H   50.320675   90.706985   29.186460
H   89.641235   88.804443   24.338900
H   63.103451   52.883041   44.354267
H   19.554173   49.453144    1.591241
H   77.179977   71.575218   69.017982
H   56.481716   42.099594   49.301765
H   97.653366   56.694431   63.493614
H   21.032108   99.787498   66.339333
H   43.198475   31.625832    1.253989
H   25.621740   42.739750   76.216888
H    2.982355   48.315796   39.367283
H   71.623528   33.179520   32.020775
H   79.552094   56.200390   38.936550
H   99.243027    7.761239   38.176620
H   83.877777   58.633522   87.493828
H   88.221329   48.424171   96.691635
H   48.099571   30.468964   63.176361
H   59.622318   76.517471   34.567513
H   45.898407   67.578880   60.654510
H   37.887627   85.712326   90.068893
H   82.077751   97.685959   22.354759
H   54.588043   66.478134    3.957943
H   12.402959   98.480957   18.080183
H   22.629860   16.724953   14.446189
H   23.556711    5.219520   86.108139
H   66.964119   77.012894   83.097435
H   83.025803   23.786438   75.680573
H   22.306318   76.341309   92.179504
H   77.961952   86.702194    7.722393
H   99.871307    0.950578   88.799767
H   11.170290   93.888741   45.420975
H   30.332134   62.270580   33.580315
H   80.917732   35.107624   45.333706
H   32.915497   98.351402   90.647110
H   78.885574   33.309109   71.287926
H   45.136837   54.058064   65.003044
H   79.077904   40.192127   68.305794
H   77.022095   61.860577   30.054527
H   99.654190   76.219009   51.154507
H   81.741966   73.857620    7.396093
H    4.848880   82.993958   62.025829
H   62.287041    0.399613   49.031509
H   31.415663   65.094261    7.941138
H   46.874203   75.707359   56.846283
H   70.170692   73.476059   39.885269
H   28.985029   42.050926   48.560257
H   49.839706   41.558876   91.083992
H   65.207840   22.610687   86.403976
H    9.695457   18.417179   29.274942
H   13.989644   36.706032   19.977186
H   76.284050   63.651146   69.857712
H   85.746048   88.435425   32.725574
H   78.148399   43.333221   20.341965
H   68.659180   16.570530   33.107155
H    2.476985   28.049587   76.261810
H   23.519514   54.867523   83.434685
H   92.581024   56.407520   65.016731
H   21.021982   62.203762   60.677502
