100
TIME:    3.095, STEP:  3095
H    8.020325   38.193993   96.312454
H   15.177212   72.551880   73.231674
H   32.955017   96.571228   87.008812
H   81.996094    5.135473   70.516907
H   67.449417   20.835400   81.786896
H   80.027473   97.855049   85.254234
H   90.761574   70.327858   32.485970
H   76.625397   56.357899   24.021084
H   77.546928   88.721680    5.267130
H   90.263405   60.822975   28.886683
H   12.365662   90.776733   41.623341
H   37.713661   78.827118   72.623665
H   46.388962   74.455521   17.511398
H    1.835056   95.536201   92.770378
H   18.147442   93.569717    1.997592
H   77.080948   41.029144   76.129250
H   75.225624   86.680954   55.138409
H   67.282555   44.190880   92.245300
H   93.472816    8.190921   26.419123
H    9.135796   40.089268   27.054590
H   80.615036   48.100861   73.237534
H   59.101013   48.192642   55.710434
H   44.421318   69.450783   43.799408
H   31.482498   73.801361   77.212486
H   18.889210   40.710709   59.397072
H   32.467587   35.388859   99.077385
H   95.193298   13.820985   61.383373
H   71.394035    0.903855   69.077965
H   78.468384   29.894300   10.870291
H   19.669411   14.239015   29.431793
H   37.862782   99.590714   64.512398
H   61.177376   66.997383   12.744377
H   88.365082   42.036980   76.618996
H    8.871938   90.084541   41.362946
H    3.837207   24.962006   13.193008
H   41.652798   27.612978   10.000890
H   76.649300   91.189438   52.339169
H   36.069191    2.307018   40.846615
H   14.430652   13.982588   44.383484
H   71.678314   22.439470   81.542824
H   23.730227   62.378048   15.262616
H   53.460197   50.764732   48.206573
H   37.899883   82.059738   25.029037
H   81.722702   64.644958   83.346397
H   88.187187    9.779640   20.958548
H   38.157856   21.949177   95.735909
H   65.914352   93.153778   55.170975
H   56.404705   27.249212   60.078987
H   55.497505   76.121147   21.012739
H   90.792107   77.850334   67.194977
H   43.308491   70.841171   86.050018
H   55.543644   76.546829   70.881889
H   73.079155   39.954590   23.116146
H    5.022694   56.711914   68.390350
H   94.364365   29.822006   26.672171
H   97.438766    9.279242   87.265701
H   92.461815    0.241535   50.347740
H   95.596428   84.602859   33.836624
H   34.372673   69.539978   73.879189
H   54.779663   65.681137   75.581429
H   54.935829   34.640263   73.084518
H   89.067009   99.134262   55.317093
H   84.180214   96.085503   21.237045
H   55.568451   58.630531   43.112591
H   55.169636   13.651132   83.792763
H   11.214390   88.411293   29.184540
H   39.251259   55.362957   16.488867
H   66.572929   94.542969   14.161498
H   11.155535   27.399361   66.120949
H   93.090393    3.811471   95.215942
H   23.752449   84.815697   25.022366
H   18.770544   48.808151   83.223511
H    5.191328   65.213158   82.391838
H   62.081326   53.522598   19.263496
H   11.394582   33.050327   36.020420
H   98.823006    5.932680   87.675293
H   47.961246   58.293579   45.786243
H   77.389053   48.346691   85.365173
H    9.930291   44.427738   52.213417
H   47.740761   40.393650   54.284164
H   71.446121   61.300854   64.969635
H   73.546234   64.440262   27.975866
H   13.619402   58.917877   24.683231
H   63.079967   77.004730   80.736176
H    1.627919   55.291553   47.726845
H   80.060669   22.738113   56.709423
H   73.862770   78.321205   71.124832
H    5.777182   57.501175   63.555420
H   19.913170   21.847475    2.878649
H   92.698700   81.938919   34.856758
H   50.682770   40.552670   98.822464
H    7.290293   28.267427   92.498207
H   83.850174   20.381903   58.345543
H   46.371754    0.966748   35.498779
H    3.078534   72.498993   87.207237
H   49.555908   73.513252    7.588175
H   16.935951   45.296185   59.193367
H   18.227751   42.589752    6.513708
H   61.274773   50.191624   85.797981
H   31.453272   99.212563   99.587921
