100
TIME:    8.966, STEP:  8966
H   10.988341   99.796883   90.937393
H   52.856949   90.717972   43.440250
H   33.888203   18.953777   18.093132
H   82.981522   63.251335   48.706314
H   14.856104   91.421692   22.600262
H   88.980225   91.494560   66.679810
H   83.061607   66.766472   91.606041
H   15.176376   64.273727   84.965431
H   33.226479   24.248135   35.709263
H   29.866560   45.123478   58.775887
H   66.259552   27.007797   76.098412
H   13.632858   73.109901   54.719185
H   72.017563   19.288185   34.091209
H   11.139077   77.440163   39.557034
H   89.507027   69.145515   19.726295
H   41.020386   27.529930   88.784241
H    3.114561   75.001274   89.598701
H   92.796524   58.553368   88.720779
H   84.914459   54.489635   35.725071
H   50.954243   15.411001   26.779535
H   32.221565   63.624634   13.892027
H   21.959497   55.986481   55.740555
H   66.033180   21.707155   75.822342
H   85.987366   44.087616   41.181110
H    8.909381   75.112259    2.754588
H    5.330875   61.785812   47.141819
H   88.930809   69.772659   77.867477
H   76.016113   74.942276   63.143318
H    6.127753   62.557613   33.343590
H   44.788780   68.930893   96.160309
H   68.925972   26.054600    0.017712
H   31.875904    4.792668   69.236549
H    1.909104   12.487324    5.525044
H   56.937119   52.042267   94.028816
H   57.816780   80.818001   70.552460
H   52.036366   87.687653   91.238960
H   39.755074   76.180428   14.950913
H   93.411278   94.869392   55.145889
H   66.616264   86.064171   75.440506
H   18.696810   72.817055   43.461037
H   22.488707   63.824837   53.579556
H   44.608307   76.763336   37.691120
H   88.448578   17.272526   49.095745
H    6.835867   63.143082   57.381321
H   78.921295   78.148399   23.356462
H   62.389709   33.923534   19.586683
H   11.789430   12.439692   11.533382
H   56.734859   87.716888   23.342411
H   27.115616   89.886452   86.816711
H   13.980314   67.203300   56.630962
H   42.885944    4.033722   47.944122
H   40.877056   31.760391   85.473824
H   94.846626   73.996643   82.141800
H   69.056396   60.920143   27.460423
H   26.908943   44.342468   76.601746
H    4.762901    3.102362   87.402985
H   64.655869   30.836525    8.728681
H   58.428894   30.159479   82.610985
H   97.407677   17.614153   23.165358
H   67.354042   16.944271    8.596214
H   25.282957   61.608913   15.336756
H   80.697044   44.487808   89.671715
H   82.762787   95.458885   18.644928
H   58.720119   90.604614   83.712784
H   88.199051   44.744709   30.533606
H   50.553291   96.547295   76.324257
H   68.209488   58.337917   99.939804
H   61.022812   30.313129   94.829254
H    3.765001    5.546745   97.899963
H   12.119796   98.984512   82.826874
H   37.316029   85.352821   54.601631
H   34.939095   53.893944   13.250442
H   22.391891   74.814629   31.861462
H   32.832363   81.961342   70.424416
H   94.372955   41.517185   81.109848
H   37.619865   82.209831   92.631546
H   81.086746   49.770962   49.757324
H   53.212772   64.461693    9.607512
H   91.466225   27.182751   17.717051
H   59.824181   20.598864   48.492271
H   86.339760   22.039743   15.869006
H   14.097891    2.618948   36.908516
H   84.993614   57.061436   83.819603
H   66.994408   79.399147   44.511326
H   15.761459   88.043442   78.600555
H   44.940258   38.389877   64.409454
H   65.973717   51.450920   51.076698
H    0.226965   87.606483    2.614468
H   41.755619   94.960197   54.860481
H   73.624619   40.391388   44.728996
H   90.948326   57.566998   22.807640
H   41.692104   69.808350    4.367510
H   60.191380   96.538750   12.359126
H   13.794775   57.129749   31.361162
H    1.572561   46.610500   22.114931
H   34.476456   41.673889    4.343266
H   50.923241   82.219200   21.545532
H   20.970858   30.098499   98.886803
H   81.593559   75.519554   94.040398
H   96.124893   48.550846   34.016895
