100
TIME:    0.650, STEP:   650
H   73.365639   62.413002   98.550919
H   83.189278   39.987217   19.001951
H   90.932343   20.667515   15.707802
H   81.585709    5.869398    4.533869
H   89.349060   24.857887   48.080681
H   17.936951    0.506204   43.117405
H   18.904408    5.227857   41.283619
H   68.797577   44.834743   48.513763
H   37.649757   23.798660   59.173096
H   57.077095   25.718063   33.143547
H   39.793610   92.396835   77.137688
H   31.031734   56.271797   46.661003
H    1.916534   22.381668   60.523392
H   22.897511    3.073168    6.704548
H   88.407967   11.963563   19.527048
H   75.388885   54.884220   79.084457
H   71.807518   24.982529   32.535622
H   15.034328   63.091156   77.012009
H   55.385834    5.620068   97.608368
H   75.054482   91.903870   60.532341
H   25.704620   91.507477   39.601349
H   24.674183   44.957863   63.910397
H   77.065590   89.335808   13.752340
H   58.649490   44.477482   58.801208
H    6.336686   34.624622   41.358551
H   43.678562    8.242154   28.249060
H    6.028147   15.456895   12.864660
H   77.695427   86.778992   88.259354
H   25.304855    8.065295   26.445976
H   25.916876   74.752304   35.061275
H   41.670902   80.331520   57.976250
H    6.798606   34.552986   39.090309
H   16.142601   20.925024   56.354088
H    5.565929   14.153970   44.367302
H   64.615059    9.785197   64.307465
H   29.070396   35.546581   18.407774
H   42.142384   80.731300   59.682751
H   37.124573   47.057354   68.308998
H   21.498272   66.632408   79.827652
H    1.971080   51.332897   89.174797
H   90.821701   78.483467   57.656193
H   73.202873   41.030647   33.338123
H   16.839666   67.397797   48.422829
H   37.852005   23.664595   44.285896
H    0.273199    6.246402   11.729593
H   69.649895   75.423393   85.867271
H   42.943470   60.806202   33.177437
H   56.274128    2.075726    8.796203
H   84.030144   78.615891   18.544836
H   39.522366   40.642811   38.202660
H   43.495029    6.889990   60.270374
H   36.721001    3.423422   31.390694
H   22.362627   25.777649   65.120522
H   61.637188   96.597298   60.499104
H   89.013046   15.486929    5.921759
H   94.379532   11.848825   70.499268
H   37.458580   70.791451   17.807991
H   77.658386   15.502617   96.812088
H   41.540604   66.232635   61.583729
H   16.126038   77.749359   45.122032
H    0.702736   48.342155   63.715332
H   75.841370   21.895248   65.946289
H   18.321701   62.828468   88.965431
H   87.673714   45.330322    9.491598
H   58.123405    8.929251   56.095123
H   61.414803    9.959644   84.618935
H   35.418358   70.832977   98.443588
H   35.465950   54.711533   97.276360
H   89.297752    3.081465   19.464993
H   43.553413   80.837059    0.363912
H    1.390985   51.177418   54.351688
H   20.371870   29.953407    4.211070
H   64.610611   86.154976   45.082188
H   15.883952    8.245838   64.577171
H   93.511398   29.568571   50.672535
H   41.025906   49.232155   52.192150
H   25.970409   70.207634    2.535699
H   62.518509    8.218441   50.338184
H   92.708000   51.598484   24.936188
H   67.648300   73.555031   64.923096
H   23.601849   36.006207   18.837627
H   90.093086   48.472549   32.425766
H   58.922604   18.106386   91.809235
H   94.883270   67.782936    4.059792
H   20.679945    8.225183   84.742317
H   36.332455   32.929531   86.921135
H   10.566763   56.092628   54.537624
H   66.418884   53.253365   88.983498
H   69.172066   57.981041   22.882462
H    8.867447   82.539322   47.449444
H   50.623234    8.530336   47.188549
H   26.380373   44.391991   45.908089
H   26.988724   47.106339   69.200554
H   10.052206   52.660858   70.643730
H   45.354313   91.506165   31.021946
H   47.608932   70.063347   33.875740
H   11.008663    4.982647   99.806671
H    9.251735   21.772034   45.635818
H   77.747612   39.652187   90.604500
H   79.608658   62.009380   35.082016
