100
TIME:    1.462, STEP:  1462
H   18.453318   87.948532   97.807510
H   60.602058   84.012749   70.222771
H    4.885179   79.086403    6.173443
H   81.722000   72.415489   60.027515
H   82.076050   89.943275   26.063408
H    5.345311   99.624199   23.532206
H   76.346107   60.060139    4.783125
H    4.975983   15.084066   73.958611
H   17.689247   45.728104    8.058797
H   34.886360   37.375511   64.942650
H   64.263351   25.069019   98.922577
H    0.037848   96.973396   88.862648
H   50.263855   73.254295   79.817711
H   82.692131    0.569696   68.499901
H   98.282906   39.434505   80.495956
H   42.740875   83.859184   11.682214
H    6.524888   78.681381    6.467416
H   32.386627   23.603790   48.861618
H   68.031944   39.686691   40.385777
H   53.127823   74.765976   15.872355
H   77.519485   10.670135   17.563461
H    2.533854   46.029610   94.767982
H   66.224220   82.731865   90.519913
H   83.205864   54.216129   98.492706
H   77.294670   70.224007   47.349182
H   39.955326   84.045609   52.138832
H   36.008720   81.704178   28.978033
H    9.182930   24.680920   15.097953
H   42.960800   81.736206   88.063316
H   57.052685   54.655502   99.613884
H   73.612679   53.149628   93.722473
H   58.068729   12.120376   63.919411
H   73.339798   61.515312   29.505461
H   39.874687   39.739082   10.159847
H   44.431526   48.404213   13.754791
H   99.669525   99.331009   15.613589
H   20.024174   50.994972   23.665045
H    3.565313   32.195385   25.610943
H   84.994553   49.298607    2.000496
H   25.489710   75.316200   53.061939
H   35.329483    6.348014   76.788620
H    0.224949   77.473946   71.487350
H   23.833899   72.267120    7.075621
H   86.001076   37.273262   23.680967
H   29.838200   74.206375   81.217239
H   59.225689   90.802193   89.107826
H   51.517445    4.606356   40.115913
H   56.317493   10.436060   59.038204
H    7.767828   11.367081   86.154526
H   56.552608   53.001972   81.410362
H   43.433079   28.497198   68.831955
H   76.183586   28.076033   78.084763
H   39.207016   30.485901   17.958534
H   42.835155   83.352242   96.331375
H   24.369904   86.671768   12.812223
H   95.395523   10.995455   42.856873
H   88.936401   47.361702   95.035713
H   17.193760   38.820122   75.897537
H    5.582534    0.540952   99.244415
H   62.540363   40.162457   22.026817
H   51.924999   10.582992    0.407551
H   47.021912   14.336924   29.203667
H   73.400223    7.455582   33.259377
H   43.432465   49.747406   87.446877
H   90.351280   44.076824   31.714075
H   11.532251   69.592720   32.630199
H   70.269516   98.909027   37.648388
H   79.375359    1.149830   36.094654
H   29.768005   44.736328   68.539619
H   60.001320   21.677053   98.654572
H   75.606972   95.925850   44.613041
H   53.417866    3.004112   63.663742
H   11.666367   45.988934   24.260563
H   98.013176   56.862450   16.317589
H   32.661110   30.723951   12.227257
H   60.224422    1.272573   97.556114
H   99.694664   99.830307   16.903475
H    0.667743   55.125099   95.179977
H   31.630297   49.219578   33.990959
H   27.826401   29.329962   94.968666
H   39.492199   44.406719   67.368950
H   51.018963   53.775528   64.525955
H   10.303149   31.658098   69.148163
H   50.743290   37.266827   29.892433
H   81.141907   57.436424    6.027975
H   17.641933   62.758785   43.309059
H   64.798393   97.053604   93.256805
H   79.490479   88.243469   80.545815
H   86.022652   12.770638   16.238251
H   37.077904   49.125885   76.479530
H   83.853584   52.374493   64.336502
H   86.460152    5.462705   61.377174
H   79.088951   71.436264   32.019730
H   88.535469    1.913217   25.394203
H   31.316135   18.772209   49.681328
H   14.676834   37.997673   91.934570
H   46.555435   51.581585   53.108246
H   12.233111   28.685730   32.644760
H   39.065605   43.152401   22.586422
H   30.036545   41.150585   56.874458
