100
TIME:    1.233, STEP:  1233
H   33.939125    8.948946   98.017166
H   66.972099   71.597633   55.777493
H    0.949398   62.610958    8.862427
H   81.683563   81.849998   72.579460
H   84.127182   71.587914   32.272713
H    8.896519   99.872292    0.853278
H   88.348900   44.596279   86.874977
H   22.974930   95.272659   94.983589
H   23.318504   67.745453   22.473745
H   41.144585   34.087410   55.974808
H   85.564377   15.854655   20.981009
H    8.778706   85.494743    5.163153
H   64.829788   87.109047    2.579198
H   94.031013    1.275701   51.072720
H   95.497978   59.888172   91.502884
H   51.948257    3.888623   30.690903
H   24.935493   63.537247   85.617302
H   27.492912   34.740005   56.800583
H   64.464302   30.079218   28.321833
H   59.296944   79.629990    0.281056
H   91.108673   33.468452   23.778881
H   80.575859   45.727356   14.267011
H   69.281700   84.594307   97.071655
H    4.482477   51.469639   15.500555
H   85.485222   88.387184   45.659706
H   41.005352   90.869904   73.603119
H   55.756546   91.222549   24.433744
H   28.504456   13.991887    7.528520
H   37.981476   60.959324   98.888542
H   48.271603   60.323196   81.408775
H   64.604469   32.613846   11.843220
H   43.609470   18.447006   85.119102
H   57.209545   78.270302    8.875333
H   30.199074   60.725624   19.806898
H   50.123680   65.714790   99.810898
H   79.759216   81.342545   16.401754
H   98.060112   59.381203    5.620923
H   13.029961   36.386753    9.451548
H   95.288651   54.187080   23.949478
H   47.058311   96.753502   35.043774
H   50.978539   98.490288   71.393478
H   20.806175   67.197319   60.728519
H   21.861387   70.893875   90.534248
H    0.624537   33.434814    1.290607
H   49.701431   83.242538   61.621201
H   62.180088   86.434364   88.178352
H   49.099415   92.253571   38.159126
H   56.305264    8.078306   44.868969
H    1.074389   30.332191   95.288528
H   51.749744   49.516445   97.428062
H   43.450550   50.605537   66.417419
H   65.054359   49.326229   93.117081
H   34.456566   29.158081   31.258572
H   48.137699   87.087608   86.225967
H   42.601219   66.597229   10.868977
H   95.108994   11.236122   50.652573
H   74.417740   53.969353   73.255974
H   34.246521   60.446114   81.795853
H   87.521202   90.865311   16.824894
H   77.652878   22.560110   28.540123
H   37.479717   21.231979   18.261864
H   55.149567   16.468765   39.565903
H   57.867538   23.072308   48.969582
H   27.706774   48.501701   93.663170
H   81.262703   62.367542   10.387715
H   25.600014   80.977028   19.089933
H   88.642349   90.991028   26.592113
H   95.193886   88.053268   25.147131
H   18.353996   61.190811   82.901039
H   55.362686   10.158869   99.136780
H   82.878532   11.507418   47.359531
H   72.299881   10.604570   46.896523
H   26.598225   57.315586   30.132671
H    3.052745   71.354019   29.927742
H   21.620167   30.398111   94.867241
H   54.810062   86.596581   12.964801
H   78.903801   19.678526   12.851538
H   89.908905   70.099052   82.534241
H   20.653070   49.890476   31.436848
H   39.056961   41.802544   14.697021
H   35.010807   42.037609   53.681927
H   33.835926   52.279984   83.674515
H   95.813179   27.836248   47.336979
H   34.989407   17.671000   50.809090
H   92.292099   71.760208   28.226830
H   22.913029   54.346348   27.406670
H   49.504005   13.703789   82.337234
H   75.804031    6.577702   82.925407
H   81.270454   25.520441   18.112049
H   57.324387   58.548164   68.292473
H   74.481972   40.010044   59.500439
H   69.516472   88.239754   57.014587
H   64.395576   64.573532   14.302988
H   66.402809   88.023384    9.953931
H   35.275288   39.285278   44.418968
H   95.762299   47.040825    3.762757
H   64.732590   38.439663   66.278122
H   11.392304   26.735931   36.308495
H   49.974693   42.165272   41.768177
H   15.814896   47.033176   78.930244
