100
TIME:    8.859, STEP:  8859
H   18.224159    9.609068   91.035355
H   55.812119   84.920288   36.693157
H   32.048977   11.256049   19.349079
H   82.963562   67.659599   54.571754
H   15.814901   82.845169   25.501144
H   90.639038   91.610481   56.083038
H   88.669899   59.541313   83.238503
H   23.586365   55.017162   94.789330
H   35.856743   34.536026   42.444927
H   32.789375   43.587116   54.586403
H   76.212433   22.702801   86.405586
H   17.717033   67.746513   62.335686
H   78.840576   25.764252   44.724106
H   16.436937   77.769966   31.413990
H   88.207405   78.703285   24.871719
H   45.322525   36.888512   97.666077
H   11.718991   67.923561   79.858070
H   90.507492   63.760017   92.430252
H   83.247482   50.000553   30.088207
H   53.836758   17.683298   19.494471
H   38.571098   74.276337   16.796175
H   11.701303   55.844437   64.852600
H   67.461784   22.576971   78.883636
H   95.928818   42.807587   49.128231
H   12.736203   83.597351    1.964724
H    5.835581   64.940170   57.211437
H   98.157143   74.220108   75.744980
H   85.044891   69.947876   59.606094
H    3.801063   52.849636   38.401665
H   40.685829   71.579117   87.653992
H   64.715263   16.459686    8.483192
H   25.119831    7.748756   79.142082
H   94.372452   20.315666   95.885635
H   52.416199   61.848206   98.536674
H   60.479698   88.919411   64.042923
H   42.734928   79.307053   91.575294
H   29.492699   80.098885    6.519904
H   97.834236   96.826988   47.595512
H   71.132286   88.395653   85.809723
H   28.775000   82.833611   35.042068
H   29.801119   60.153732   51.058681
H   53.625656   76.343735   32.228954
H   87.527740   16.630470   41.367405
H   13.667843   61.346306   46.919857
H   88.203140   82.368904   14.199885
H   63.770149   31.882694   19.151979
H   10.952880    6.620375   10.505808
H   56.728329   86.614822   16.721851
H   23.988197   98.748695   91.084564
H   11.734344   65.573875   64.112755
H   42.893291   14.364162   46.815933
H   35.676937   41.689587   92.497658
H   92.627800   73.376221   88.355820
H   71.534821   62.666306   22.739090
H   35.428566   34.965111   75.692337
H    4.629633    3.214915   91.045517
H   57.872780   33.923943   98.551964
H   66.396423   40.264275   85.366966
H   88.968300   13.092824   31.379831
H   74.415428    8.719594   11.639549
H   18.533007   66.584961   23.679005
H   84.494682   45.483749   94.512642
H   75.498947    2.760364   25.982239
H   51.372196   90.021744   86.617340
H   83.952423   53.291027   20.568888
H   57.126503    1.866532   69.997581
H   76.794174   54.639057   94.773972
H   68.414001   24.193398   89.714035
H   98.432159   13.235085    4.610767
H    9.946685   93.609695   83.053818
H   40.714474   92.632988   55.884926
H   43.749908   57.446678    5.407575
H   29.368378   80.107811   34.605198
H   35.187519   88.733742   76.782112
H   89.218552   41.359631   72.997009
H   35.090012   75.352531   99.831711
H   71.368973   59.032398   47.859322
H   48.186535   71.457771    3.697916
H   86.334679   27.497044   16.522738
H   65.071648   26.427977   57.710442
H   84.245018   20.932779    9.473554
H    6.068907    1.924340   45.859741
H   78.226112   55.272007   73.629982
H   59.633087   70.243019   54.283794
H   20.971375   94.737473   88.973038
H   47.403172   34.459175   56.979080
H   58.827427   59.230690   45.974541
H   98.506126   96.168312    3.723830
H   39.535160    0.917846   55.735603
H   83.084427   44.793938   40.904419
H   86.569450   51.789722   20.547997
H   33.775188   61.760818    2.329036
H   53.332447   93.328880    4.084651
H    3.453767   50.638172   24.146711
H    3.422711   56.195210   19.656507
H   25.638702   45.899292    9.870127
H   59.416496   76.078651   27.699551
H   21.177393   24.804092    1.035223
H   86.690819   75.057503    3.002497
H   89.478210   51.296215   44.324886
