100
TIME:    7.338, STEP:  7338
H   21.083212   49.090981   92.427872
H   97.819717    2.498208   40.789745
H    5.904350    1.829571   37.203999
H   82.708267   30.325680   37.941929
H   29.444162   60.930401   66.741943
H   14.224275   93.258293    5.452515
H   68.384079   56.835674   64.294312
H   43.133965   23.432430   34.443108
H   73.245827   80.774551   38.185871
H   74.332802   21.747805   95.030128
H   17.692139   61.502918   32.916489
H   75.771042   91.506805   70.602272
H   75.829781   17.826267   95.876610
H   91.747704   82.458107   15.664639
H   69.733345   14.566490   98.019073
H    6.477747   69.920654   23.922968
H   34.028877   67.321228   41.395443
H   57.987492   37.771820   45.153114
H   59.553661   86.191147   49.955128
H   94.820297   49.980663   15.937723
H   28.829391   25.696129   58.074841
H   65.881546   53.825287   94.379822
H   87.769325   34.942741   22.401720
H   37.251823   24.612032   62.091156
H   67.135323    4.219116   90.732704
H   13.008022    9.777939    0.343716
H   29.314623   37.444908   45.566692
H   13.382930   98.952751    9.326854
H   70.728539   14.852921   10.301283
H   82.365005    9.224201   66.738548
H    4.850864   80.067963   28.819801
H   29.082943   49.768520   19.948616
H   87.235847   31.598829   58.861946
H   88.149361    1.238882   62.612915
H   98.332954    4.080471   71.502548
H   10.517656   60.172516   96.356270
H   83.608475   35.802856   86.671112
H   60.697426   24.662838   40.263252
H   35.333134   21.533808   33.205215
H   72.035164   25.224073   15.372678
H   33.750717    7.969151   15.224640
H   81.807213   70.379120   54.576870
H   74.438080    7.506382   31.505177
H   10.788353   35.810570   98.206657
H   20.139011   42.371418   84.042305
H   83.404503    2.877495   12.972685
H   99.062790   23.903797   95.901360
H   56.635494   70.949005   22.611370
H   79.526497   24.717037   51.759453
H   79.802490   42.422489   70.460213
H   42.997730   61.207047   30.779221
H   61.755444   82.827042   92.342621
H   61.086216   64.556946   76.689919
H    6.763268   87.476944   55.621719
H   56.532578    1.671610   62.764027
H    2.735229    4.814859   42.823959
H   61.447788   77.811440   53.892342
H   79.653244   83.903633   24.545633
H   69.007622   48.824062   48.147194
H   74.785759   91.810730   54.900414
H   22.587362   37.320679   42.267342
H   38.477974   59.641006   63.334816
H   72.238319    6.550759   30.281769
H   46.927479   81.736267   27.912464
H   23.579849   74.771118   78.924797
H   50.562439   77.479668   80.063675
H   98.826538    2.057234   21.341059
H   73.479851   37.205986   17.001434
H   22.626480   22.524445    0.005069
H   79.055733   17.214029   86.279816
H   89.017204   96.124237   74.126900
H   69.000145    7.949075   93.919075
H   28.540277   55.343937   73.604553
H   68.667564   84.997192   67.154541
H   15.950215   39.119999   57.673771
H   99.129585   77.870506    2.175747
H   33.230183   90.677681   20.881693
H   76.732910   70.907509   19.689287
H   13.397935   31.964703   99.548637
H   39.662155    9.283595   88.746010
H   54.468361    5.197335   18.565125
H   91.934486   92.058701   73.106483
H   82.020317   29.835363   28.777130
H   54.991268   40.088009   93.204674
H   95.030075   89.885460   36.415489
H   82.407272   78.592194   51.356247
H   57.243214   69.820091   73.447487
H   74.044243   17.879454   19.494263
H    7.967024   85.604454   68.175423
H   17.560717    7.369305   86.532593
H   24.323933   69.661201   88.426926
H   21.236589   47.366837   73.342339
H   55.833408   47.696590   86.463387
H   56.455009   58.360802   21.588831
H   29.723625   92.435837   84.706268
H    0.010269    5.962804   88.431526
H   80.146568   88.792633   15.173623
H   24.113283   49.542812   31.571962
H   59.147636   68.489464   30.402905
H   95.003319   90.329330   90.847229
