100
TIME:    2.021, STEP:  2021
H   80.650543   36.685257   97.295731
H   45.052483   14.319788    5.484257
H   14.494001   19.302765   99.611137
H   81.815826   49.385399   29.384884
H   77.069138   34.749577   10.907494
H   96.677620   99.018593   78.892509
H   47.049183   97.804344   48.497688
H   61.039680   63.443012   22.632187
H    3.947959   91.982391   72.873207
H   19.611464   45.401924   86.829765
H   12.266525   47.561741   45.076313
H   78.705154   24.992739   49.071770
H   14.706956   39.434181   24.258240
H   55.013374   98.846565   11.038418
H    5.082386   89.503601   53.625870
H   20.264938   34.965157   65.281021
H   61.582077   15.648964   57.360558
H   44.332420   96.419243   29.481945
H   76.740730   63.139000   69.835281
H   38.068703   62.893085   53.931709
H   44.347626   55.021160    2.391323
H   56.134525   46.767426   47.170952
H   58.760765   78.185555   74.526794
H   31.268745   60.920444   56.978111
H   57.301140   25.890488   51.473274
H   37.392162   67.387177   99.744316
H   87.805809   58.468357   40.070858
H   62.014816   50.773159   33.575153
H   55.115570   32.452553   61.638420
H   78.487724   40.820389   44.051968
H   95.602150    3.278578   49.489040
H   93.364471   96.675941   12.169945
H   12.713751   20.616173   79.864594
H   63.493324   88.510239   86.610046
H   30.536480    6.148013   47.792412
H   48.272930   43.244434   13.692273
H   73.638611   30.523626   67.712219
H   80.458961   21.964054   65.056480
H   59.865463   37.365608   48.424309
H   72.837151   22.983740   97.041946
H   97.129066   25.529047   89.958420
H   49.985229    2.560065   97.750183
H   28.648893   75.619278   47.451874
H   50.304436   46.643097   78.336227
H   81.348396   52.150959   29.052889
H   52.013859    1.464259   91.376717
H   57.419971   34.762634   44.892525
H   56.347347   16.191450   93.625984
H   24.106405   65.069054   63.857956
H   68.275078   61.510311   42.312756
H   43.390430   74.528908   74.725952
H    3.350306   76.205917   41.387524
H   50.803093   33.727173   85.493431
H   29.891392   74.234032   20.997381
H   79.868668   35.676472   17.555433
H   96.094955   10.407974   23.827194
H   24.374697   31.232109   48.201408
H   75.569183   86.028870   61.499466
H   49.668098   24.161062   56.330917
H   25.653835   83.128738    6.128188
H   87.186630   84.585884   56.821712
H   27.182434    9.132763    3.909375
H   11.315504   69.336205   94.909592
H   81.818237   52.788231   72.272606
H   12.538280   99.429596   83.773239
H   77.192085   41.803078   65.682640
H   25.420233   18.234560   64.636246
H   40.761574   33.120972   62.818089
H   57.630150    4.570145   33.478989
H   71.327209   49.794304   97.477478
H   57.856743   57.891396   37.908726
H    7.326890   84.451920    4.589374
H   75.218521   18.340031    9.926464
H   85.713402   21.486307   83.094521
H   59.610580   31.519342   54.603619
H   73.438087   37.099693   59.940762
H   50.449120   51.380707   26.791498
H   26.930584   18.572012   26.051975
H   58.426231   47.581882   40.226143
H    0.411605   98.885513   46.810188
H   50.431492   50.189831    0.779611
H   92.960632   57.426224   17.782751
H   45.671543   40.989471   22.390018
H   89.196480   85.101173   78.833862
H   53.923752   22.469070   51.839127
H    4.775071   83.289940   82.127556
H    2.132743   56.409760   19.912519
H   88.489273   43.488327   74.731667
H   97.622993   81.646370   11.665230
H   87.654892   26.125648   96.464531
H    6.730286   82.559326   76.141556
H   27.821104   47.503506   72.029671
H   14.955318   88.188522   75.265121
H   42.565456   35.821079   63.082893
H   21.649895   68.701569   62.527000
H   60.847900   15.924456   63.061661
H    2.185229   83.661644   20.959946
H   14.285562   33.445282   23.699429
H   12.437422   45.562031   75.760544
H   64.752274   26.791672    3.034290
