100
TIME:    8.884, STEP:  8884
H   16.533581    7.316490   91.012466
H   55.121658   86.274887   38.269581
H   32.478703   13.054584   19.055634
H   82.967758   66.629631   53.201324
H   15.590883   84.849030   24.823368
H   90.251465   91.583397   58.558968
H   87.359550   61.229507   85.193535
H   21.621414   57.179905   92.494026
H   35.242195   32.132385   40.871174
H   32.106544   43.946079   55.565254
H   73.886993   23.708641   83.997368
H   16.762787   68.999641   60.556129
H   77.246414   24.251152   42.239784
H   15.199132   77.692909   33.316570
H   88.511055   76.470161   23.669518
H   44.317352   34.701927   95.590881
H    9.708598   69.577232   82.133919
H   91.042313   62.543510   91.563553
H   83.636963   51.049404   31.405231
H   53.163273   17.152388   21.196589
H   37.087563   71.787628   16.117636
H   14.098077   55.877625   62.723618
H   67.127998   22.373743   78.168381
H   93.606049   43.106659   47.271427
H   11.842086   81.614853    2.149271
H    5.717659   64.203171   54.858723
H   96.001457   73.180984   76.240891
H   82.935364   71.114792   60.432549
H    4.344686   55.117855   37.219872
H   41.644463   70.960373   89.641449
H   65.699074   18.701488    6.505272
H   26.698353    7.058081   76.827705
H   96.133316   18.486614   98.137833
H   53.472488   59.557098   97.483437
H   59.857521   87.026558   65.563843
H   44.908161   81.265137   91.496712
H   31.890522   79.183357    8.489766
H   96.800835   96.369606   49.359619
H   70.077141   87.850914   83.387009
H   26.420282   80.493294   37.009117
H   28.092611   61.011467   51.647671
H   51.518799   76.441772   33.505161
H   87.742889   16.780483   43.173092
H   12.071583   61.766113   49.364124
H   86.034485   81.382805   16.339304
H   63.447617   32.359509   19.253546
H   11.148335    7.980028   10.745895
H   56.729855   86.872314   18.268711
H   24.718903   96.678078   90.087402
H   12.259104   65.954582   62.364681
H   42.891575   11.950508   47.079529
H   36.891918   39.369678   90.856575
H   93.146217   73.521179   86.903946
H   70.955750   62.258324   23.842205
H   33.438057   37.156082   75.904816
H    4.660770    3.188618   90.194458
H   59.457596   33.202583    0.929679
H   64.534851   37.903358   84.723045
H   90.940117   14.149209   29.460562
H   72.765572   10.641248   10.928490
H   20.110098   65.422241   21.729885
H   83.607384   45.251053   93.381584
H   77.196106    1.054380   24.267914
H   53.089001   90.157928   85.938705
H   84.944626   51.294224   22.897093
H   55.590706    0.623746   71.475777
H   74.788406   55.503277   95.980942
H   66.687088   25.623241   90.909180
H   99.678040   11.438744    3.042776
H   10.454421   94.865494   83.000793
H   39.920444   90.932014   55.585091
H   41.691307   56.616600    7.240036
H   27.738358   78.871086   33.964138
H   34.637249   87.151405   75.296669
H   90.422852   41.396442   74.892532
H   35.681099   76.954704   98.149429
H   73.639481   56.868511   48.302780
H   49.360889   69.823174    5.078669
H   87.533638   27.423611   16.801783
H   63.845604   25.066034   55.556664
H   84.734444   21.191416   10.967818
H    7.944856    2.086632   43.768333
H   79.807304   55.690098   76.010735
H   61.352943   72.382301   52.000507
H   19.754105   93.173447   86.549561
H   46.827724   35.377563   58.715149
H   60.497120   57.412987   47.166634
H   98.908195   94.167885    3.464633
H   40.053959   99.525902   55.531136
H   80.874191   43.765305   41.798012
H   87.592552   53.139553   21.075951
H   35.624935   63.641083    2.805313
H   54.935001   94.078850    6.017940
H    5.869877   52.154896   25.832331
H    2.990435   53.955791   20.230906
H   27.703598   44.912048    8.578804
H   57.432091   77.513359   26.261696
H   21.129137   26.041103    0.533304
H   85.499870   75.165459    0.908430
H   91.031174   50.654774   41.916477
