100
TIME:    5.937, STEP:  5937
H   15.827484   77.569054   93.710526
H   36.508888   26.580908   52.453167
H   81.814133    1.036069   53.654034
H   82.473114   88.045258   14.735272
H   41.993881   48.634155    4.729485
H   35.954350   94.776100   66.708183
H   41.811817   62.233677   54.734211
H   53.249802    2.228620   63.079273
H    7.685143   15.475179   26.373533
H   12.600386    1.630025   40.175297
H   48.009750    5.130733   67.866768
H   29.242142   21.281513   70.326973
H   65.214615    2.567745   35.091484
H   61.116020   86.776375    9.047672
H   52.714073   39.710434   65.388000
H   62.810013   92.457191   40.218475
H   46.688942   74.656425   13.856878
H   28.026838    5.944386   93.718788
H   37.737858   27.417574   76.145523
H   32.563858   79.733192   20.551142
H   11.966713   65.171143   96.103859
H   31.566315   51.965439   13.687851
H    6.475273   46.336983   62.485931
H   67.425972    7.852023   66.141205
H   17.243305   15.325546   80.385963
H   19.482126   51.147789   32.129066
H   50.125221   95.682266   17.765173
H   31.595268   33.558784   63.021210
H   40.265511   87.743286   76.527222
H   28.643528   43.899132   55.362900
H   49.714691   54.437191   39.662392
H   40.622959   88.479355   49.646217
H   88.551384   34.102654   32.648804
H   28.954613   29.632011   21.634554
H   33.194458   10.127661   86.250259
H   88.731125   50.440239    0.760423
H   49.234184   87.109009   76.277748
H   18.606213   50.305225   41.398708
H   94.468658   52.059135   68.972923
H    3.994765   56.381924    5.144808
H   29.499287   59.893517   82.218849
H   99.875839   64.885086   83.053429
H   62.379696   99.102371   30.310162
H    0.247226   12.295248   61.223442
H   41.664860   97.649612   64.155502
H    1.489398   76.156021    7.280909
H   88.117477   47.712601   82.454872
H   56.556484   56.519150   35.925816
H   38.573723   40.747139    7.643800
H   50.394596   21.096289   68.421432
H   43.093929   96.464096   16.012669
H   93.660179   12.829880   84.308907
H   32.023418   56.433472   58.058475
H   39.203720   10.333198   93.800560
H   68.082146   78.895630   50.846035
H    0.990285    6.288575   90.517303
H   72.630928   18.237404   20.645683
H   83.974518   16.211176   60.632065
H   58.514313   89.621498   55.698036
H   67.236786   84.125671   94.748192
H   34.211628    2.474806   51.499905
H   88.202187   72.681320   26.723373
H   77.124062    2.152451   26.352539
H   50.723427   74.104477   65.953293
H   67.974350   86.665970   48.456211
H   36.626549   47.127159   97.225105
H   11.231678   53.618259   53.700882
H   70.256523   57.080845   50.025532
H   52.802677   23.191368   87.874176
H   50.666603   46.756592   89.231506
H   33.506996   91.447235   90.929665
H   84.434158   54.487534   91.301132
H   19.887886   24.638222    9.521622
H   99.515388   73.665428   50.396843
H   48.417011   37.105000   51.463150
H   66.015739   88.078911   96.445160
H    5.995682   11.965975   96.046837
H   10.911387   62.515884   42.318619
H   46.212795   36.079884   83.921638
H    8.369190   85.602852    9.443303
H   27.050020   90.702652   34.829090
H   86.800415   82.973099   90.310631
H   93.402718    6.406557   95.352936
H   58.604759   20.201035   21.164165
H   63.246590   77.522820   72.226852
H   14.649166   27.129246   54.066544
H   63.673531   71.684517    6.642572
H   51.512291   29.988550   34.020317
H   78.892441   63.609505   79.633797
H   41.428226   65.013718   36.450844
H   66.989159   94.012894   58.840374
H   17.576777   41.998138   46.648712
H   66.026627    5.657613   78.121902
H   21.055916   73.364082   27.121721
H   53.944908   17.928959   52.511662
H   84.293427   61.285858   60.795166
H   91.351494    8.392934   95.746750
H   26.817545   80.220673   59.694229
H   25.887909   62.442371   47.751747
H    7.981888   26.282196   25.810390
