100
TIME:    7.129, STEP:  7129
H   35.216629   68.257393   92.619217
H    3.591526   91.173454   27.611111
H    2.311645   86.793114   39.658001
H   82.673187   38.936371   49.398724
H   31.316954   44.178127   72.408951
H   17.465763   93.484718   84.755112
H   79.338593   42.722370   47.950237
H   59.560951    5.351696   53.633438
H   78.383446    0.869006   51.342449
H   80.041267   18.746874   86.846931
H   37.132812   53.093296   53.047600
H   83.746948   81.030655   85.479362
H   89.156975   30.475780   16.646431
H    2.096200   83.102303   99.759117
H   67.194832   33.235405    8.069950
H   14.881752   88.200500   41.271973
H   50.835365   53.497746   22.369349
H   53.517986   47.941818   52.397125
H   56.299198   77.424347   38.944805
H    0.452100   54.418278    1.708104
H   41.231750   46.503326   63.746632
H   45.844513   53.547836   12.178040
H   90.559776   36.642525   28.382055
H   56.671768   22.111788   77.612640
H   74.610542   20.794395   89.189186
H   13.993450   15.938457   20.011915
H   47.337627   46.133575   41.419285
H   31.017723   89.197334    2.418096
H   66.184090   95.890938   20.180277
H   74.350830   14.397299   50.123405
H   96.625542   61.325928   45.355217
H   15.886505   55.542362   39.296806
H   72.515022   46.890480   40.033577
H   79.318779   20.392288   71.417984
H    3.534509   19.904671   58.787003
H   92.349739   43.802933   97.013222
H   63.561913   43.456665   70.202667
H   69.336052   28.488148   25.515320
H   44.155743   26.087027   53.459106
H   91.721397   44.790440   98.929001
H   48.034637    0.798326   10.301088
H   99.420540   69.559525   43.907780
H   72.639435    6.252672   16.409634
H   24.133244   32.302574   77.770988
H   38.267899   50.616802   66.157906
H   86.102470   98.891617   12.123590
H   97.429977   12.537095   93.895424
H   56.622738   68.796371    9.679817
H   73.416206   42.025806   60.097321
H   75.414307   39.241375   85.072609
H   43.012081   81.384399   28.576359
H   51.598202    2.219987    6.062318
H   56.750652   63.345093   88.827583
H   11.602707   90.886078   46.398880
H   73.173233   83.356575   60.986111
H    2.474920    5.034707   49.938812
H   48.198727   83.842003   34.014763
H   95.215988    3.641011   29.929609
H   52.525314   39.991886   64.191490
H   88.578560   75.747299   60.844872
H    9.403080   47.039421   58.561981
H   45.895790   61.586349   72.790573
H   58.049404   20.812889   44.613525
H   32.574993   80.597763   33.587444
H   15.284236   91.462799   59.461796
H   63.401703   87.869713   67.705963
H   15.595427   94.831055   11.249991
H   87.916847   25.252840    7.010024
H   12.209473   37.541855   13.113435
H   74.815880    6.709069   86.721497
H   95.653694   10.344659   76.633522
H   86.205254   14.896680   78.600304
H   42.167450   65.681107   78.962219
H   73.269417   98.225525   79.572845
H    5.883065   38.812252   41.827198
H   94.189690   64.476341   16.238501
H   14.248031    8.766880   17.175177
H   66.913712   84.572746    8.146659
H    3.375916   32.578602   97.217415
H   49.911880   20.669197    6.751496
H   50.376762    3.035133    6.073154
H   76.250557   90.703339   90.592247
H   68.801552   26.340124    8.872587
H   40.613270   22.203175   12.293695
H    5.206450    2.960418   56.675758
H   87.216415   70.916061   36.842712
H   43.284580   85.016090   63.481590
H   70.682945   34.603947   21.661247
H    3.629268   97.241432   69.884773
H   36.039257   15.968678   79.060562
H   15.770802   58.375816   84.013229
H    5.772707   31.647846   69.359169
H   42.436054   41.425251   70.301094
H   36.256927   45.680992    7.496490
H   33.337364   11.156647   79.903503
H   82.747742   14.215713   99.226585
H   96.736198   76.798477   27.194061
H   24.516703   39.202198   35.767288
H   69.103966   67.586952   47.909397
H   82.020546   95.693375   10.980649
