100
TIME:    1.141, STEP:  1141
H   40.160805   17.385689   98.101395
H   69.531242   66.609901   49.974148
H   99.368408   55.992001    9.942657
H   81.668121   85.640282   77.621941
H   84.951218   64.213707   34.767281
H   10.323139   99.971962   91.742516
H   93.170982   38.383724   79.680458
H   30.205948   87.313065    3.430521
H   25.580040   76.590851   28.264807
H   43.658806   32.766426   52.371933
H   94.121994   12.152987   29.842901
H   12.290333   80.883232   11.711607
H   70.682266   92.675148   11.723126
H   98.586372    1.559336   44.071224
H   94.379143   68.105713   95.924881
H   55.647293   11.935955   38.327621
H   32.331825   57.453140   77.240776
H   25.526878   39.213943   59.990036
H   63.031487   26.219446   23.475183
H   61.775368   81.584091   94.017265
H   96.568085   42.627602   26.275906
H   71.754326   45.605927   22.100925
H   70.510033   85.342537   99.703796
H   13.030304   50.366245   22.333580
H   88.775749   95.684181   44.980965
H   41.427197   93.611542   82.226715
H   63.690170   95.046524   22.608091
H   36.266815    9.697461    4.487607
H   35.981049   52.612278    3.237334
H   44.743832   62.600174   74.094933
H   60.985447   24.363337   19.123020
H   37.800510   20.988602   93.636009
H   50.728863   85.001564    0.587243
H   26.311928   69.156898   23.682463
H   52.410484   72.669258   94.208298
H   71.760315   74.115738   16.718313
H   89.235771   62.750343   98.371773
H   16.832314   38.070621    2.959527
H   99.424271   56.151009   32.767502
H   55.723320    5.366198   27.805239
H   57.265495   95.333122   69.225998
H   29.074608   63.068558   56.406193
H   21.068937   70.342178   83.888618
H    6.499212   31.892756   92.295052
H   57.681381   86.872787   53.747940
H   63.367008   84.679604   87.804939
H   48.127979   87.291107   37.372993
H   56.300350    7.131086   39.176525
H   98.384941   37.951363   98.958084
H   49.820210   48.116146    3.862722
H   43.457569   59.487434   65.447388
H   60.583229   57.863491   99.156265
H   32.548088   28.624634   36.602119
H   50.267979   88.588280   82.166153
H   49.925591   58.531872   10.088284
H   94.993881   11.332809   53.784470
H   68.584915   56.623955   64.506035
H   41.097107   69.134285   84.165482
H   80.264915   86.978165   23.887806
H   83.724350   15.488424   31.156822
H   31.676352   25.510086   25.434624
H   58.414825   17.325089   43.728897
H   51.626907   29.346279   55.281105
H   21.389284   48.001244   96.160545
H   77.611397   69.715233    1.819921
H   31.251747   85.550636   13.650251
H   96.023575   87.809998   22.150112
H    1.548970   82.791794   20.748999
H   13.768541   67.801346   88.670692
H   53.499130    5.531436   99.330505
H   85.799858   17.767351   48.462925
H   79.886063   13.658030   40.160347
H   32.597015   61.866032   32.491772
H    5.077584   77.175613   35.395576
H   17.184483   30.267206   87.893120
H   52.634861   80.700584   19.155159
H   70.551140   27.652510   11.223646
H   85.586578   76.114372   77.453857
H   16.243006   50.160007   30.411015
H   43.568802   46.813438   22.622894
H   33.210423   41.085827   48.183208
H   26.932957   51.679153   91.367386
H   89.991585   26.300833   38.574406
H   28.660337    9.798440   59.212288
H   96.771652   77.514420   37.145226
H   25.030674   50.966679   21.017937
H   43.359535   20.392937   77.950333
H   74.323013   13.943310   83.881401
H   79.361275   30.642588   18.864841
H   65.458054   62.333534   65.003349
H   70.716957   35.042667   57.557568
H   62.709400   81.320381   55.261932
H   58.492561   61.817009    7.185503
H   57.510574   82.443245    3.750912
H   36.865803   47.526337   42.304832
H   88.163483   50.673882    8.514822
H   72.035202   33.159939   71.569077
H   11.054513   25.952606   37.780388
H   54.357384   41.768696   49.474384
H   10.101395   49.396488   87.791084
