100
TIME:    8.227, STEP:  8227
H   60.963615   67.566032   91.613968
H   73.266953   50.674152   96.843399
H   21.185511   65.787262   26.767384
H   82.857483   93.697197   89.212715
H   21.478079   32.187580   42.636826
H    0.437063   92.295174   93.493263
H   21.793488   16.863764   33.815281
H   73.260315    0.342747   52.818657
H   51.392509   95.300064   82.227203
H   50.051338   34.512531   29.840832
H   34.999527   97.273987   47.282928
H   41.840385   36.067440    7.322565
H   19.141380   64.015411    7.530753
H   47.729073   79.717964   83.318459
H   80.531136   35.156631   55.263382
H   70.733292   92.165367   50.128204
H   62.540627   26.123119   22.324621
H   76.994293   94.513313   14.338219
H   73.401413   23.485600   96.793259
H   70.864395   31.104715   76.465034
H   76.074883   37.193684   33.949375
H   51.110844   55.005447   18.673203
H   75.899895   27.714575   96.965302
H   54.651619   35.247040   96.064941
H   35.338814   33.718155   97.298195
H    8.816418   83.571518   16.684734
H   52.656128    0.489213   63.208057
H   38.371361   40.448246   38.713333
H   90.058754   95.510086   68.277397
H   16.453121   87.220963   37.411072
H   39.839855   59.785843   58.485023
H   85.215172   25.208973   37.649452
H   49.856274   66.555901   38.950089
H   25.712627   19.767128   25.160395
H   76.208336   36.770653   25.589254
H   87.796997   29.803461   93.561867
H   68.874565    3.243718   56.720730
H   23.955708    8.392338    2.998825
H   97.806358    2.166288   47.054695
H   88.301941   41.999260   85.318054
H   72.994476   38.470200   36.169033
H    6.887160   73.865341   99.964165
H   82.088776   12.839148   95.718758
H   54.021297   50.733574   85.127594
H   43.024284    7.298780   60.117630
H   71.928459   19.830662   16.584383
H    6.011765   72.250252    4.436620
H   56.689754   80.105423   77.617699
H    5.515887   51.089272   16.295097
H   98.468018   55.953640    8.300094
H   42.936687   75.379631   40.152237
H    4.960466    0.333892   33.985718
H   79.522209   69.711670   25.060831
H   86.173737   72.975891   94.851883
H   85.748634   79.580185   70.320877
H    3.842478    3.879718   12.560303
H   17.808632   52.159904   38.443687
H   13.456620   99.948235    1.645435
H   39.120770   86.388466   79.899765
H   16.122398   60.143841   29.615135
H   78.665909   95.978516   72.953621
H    6.925636   51.366318   23.108372
H   32.591244   45.887604   69.320374
H    7.972713   86.578995    3.774144
H   58.868553    3.766744   61.713684
H   95.951454   33.284691   32.628803
H   27.501219   32.791584   64.261765
H   12.070700   88.047844   59.500778
H   66.936310   58.646584   44.250252
H   97.110832   61.863438   84.394272
H   60.787533   35.636162   63.464760
H   95.794296   78.431053   59.080822
H   70.575287   11.371191   50.811192
H   49.098347   28.733364   14.333319
H   58.773849   40.429028   25.078192
H   20.147326   34.846130   42.356438
H   13.969819   13.732208   36.648689
H   18.497755   12.780407   68.788696
H   56.026253   29.353428    9.469593
H   96.066032   60.855858   12.157747
H   71.872337   14.394448   71.699478
H   58.642830   97.823853   98.733696
H   38.250473   44.702671   13.440511
H   16.154243   16.161257   12.008465
H   51.743958   34.272327   50.237587
H   61.950474   11.244472   13.091184
H   16.617586    5.182317   15.838432
H   88.341820   46.741760   10.276802
H   26.418900   36.105537   60.904549
H   38.961491   70.796524   18.312933
H   60.705433   17.666004    7.201280
H   87.013588   14.228592   90.285103
H   12.819969   74.369652   55.211121
H   42.373367   12.295400   81.532784
H   14.351017   12.804550    5.134823
H   73.438049   70.856812   42.513786
H    9.582031   39.809242   64.046394
H   22.397303   93.532082   13.723730
H   16.797508   72.328377   55.940784
H   50.220989   67.512894    5.206540
