100
TIME:    7.554, STEP:  7554
H    6.476345   29.282745   92.230118
H   91.854141   14.203277   54.410046
H    9.617296   17.368923   34.667805
H   82.744522   21.425930   26.101826
H   27.508646   78.243752   60.885132
H   10.874406   93.024284   26.843719
H   57.063679   71.420837   81.185791
H   26.156792   42.118526   14.610068
H   67.936134   60.007095   24.589092
H   68.433144   24.849245    3.487691
H   97.600357   70.194199   12.110342
H   67.528000    2.333753   55.226906
H   62.056221    4.752731   74.410423
H   81.052513   81.792336   32.102932
H   72.356880   95.272324   87.630402
H   97.792542   51.028564    5.992664
H   16.659492   81.608948   61.058773
H   62.606693   27.261200   37.666481
H   62.917126   95.251572   61.334217
H   88.999741   45.394421   30.644022
H   16.011642    4.192076   52.213085
H   86.589676   54.112030   75.985413
H   84.885414   33.186028   16.221087
H   17.182058   27.196016   46.048370
H   59.409737   87.089920   92.327919
H   11.989590    3.411087   80.017891
H   10.688677   28.465559   49.853008
H   95.157524    9.034873   16.466978
H   75.425194   34.449635    0.091263
H   90.647598    3.877842   83.910179
H   13.352221   99.437958   11.730568
H   42.721371   43.801296   99.952477
H    2.449908   15.795820   78.320930
H   97.275703   81.443733   53.512939
H   92.957344   87.726250   84.643295
H   29.293686   77.090363   95.677315
H    4.326278   27.892271    3.691060
H   51.770485   20.709408   55.505135
H   26.215031   16.828089   12.273743
H   51.690582    5.002688   32.367172
H   18.989115   15.379979   20.313444
H   63.603966   71.226166   65.603539
H   76.296967    8.802082   47.106312
H   96.996078   39.436058   19.325771
H    1.402653   33.849873    2.525814
H   80.616173    6.996722   13.850218
H    0.750743   35.650948   97.974480
H   56.648678   73.173737   35.976238
H   85.841438    6.828535   43.142326
H   84.337646   45.710148   55.357460
H   42.982899   40.353897   33.056244
H   72.252884   62.784580   78.163666
H   65.566414   65.809387   64.145729
H    1.761742   83.953629   65.153458
H   39.334579   20.601089   64.600952
H    3.004257    4.587648   35.470810
H   75.141937   71.578896   74.435677
H   63.569260   63.505318   18.981333
H   86.040932   57.952053   31.565506
H   60.531403    8.412923   48.756859
H   36.213177   27.276039   25.426949
H   30.811714   57.630508   53.560829
H   86.901772   91.811310   15.470001
H   61.760670   82.912903   22.047413
H   32.153320   57.519764   99.039665
H   37.293152   66.741631   92.835281
H   81.496704    9.524668   31.770105
H   58.559319   49.559013   27.327484
H   33.392532    7.004059   86.458923
H   83.442574   28.062479   85.821686
H   82.158440   81.427826   71.536324
H   51.213367    0.776796    9.751893
H   14.456079   44.660282   68.067444
H   63.911617   71.325806   54.320312
H   26.354544   39.438053   74.051086
H    4.236051   91.713280   87.640999
H   52.847370   71.983345   24.712351
H   86.880981   56.783779   31.618792
H   23.755400   31.330242    1.958982
H   29.069366   97.516777   70.137367
H   58.696999    7.431954   31.475159
H    8.143197   93.459457   55.035892
H   95.681816   33.447666   49.348480
H   69.851479   58.571407   73.475426
H   84.512863   76.372276   15.477286
H   77.437057   86.525421   66.355881
H   71.669365   54.115135   83.747169
H   77.518120    0.594938   17.254700
H   12.450269   73.577721   66.408821
H   98.463196   98.482193   94.254883
H   33.163532   81.325386   92.988449
H   37.218403   63.612320   77.458916
H   69.679474   54.177975    3.166995
H   77.330635   71.465294   36.153347
H   25.988548   73.088913   89.669891
H   17.851059   97.433411   77.274910
H   63.001305    1.188469    2.750970
H   23.696352   60.229763   27.235384
H   48.857841   69.422203   12.310070
H    8.420118   84.785629   70.040222
