100
TIME:    3.145, STEP:  3145
H    4.639120   33.608727   96.266678
H   13.786278   75.262604   76.385666
H   33.814468    0.168481   86.422112
H   82.004486    3.075346   67.776428
H   67.001572   24.843121   80.431152
H   79.252327   97.800880   90.205711
H   88.140877   73.703865   36.396034
H   72.695496   60.683384   19.430096
H   76.317833   83.914398    2.119719
H   88.896980   61.540901   30.844767
H    7.714783   92.788605   36.807285
H   35.805168   81.333374   69.064552
H   43.208649   71.430466   12.541868
H   99.359383   95.382088   96.575157
H   18.755695   89.103470   99.594124
H   75.070602   36.655975   71.978859
H   71.204933   89.988297   59.690105
H   68.350670   41.759392   90.511902
H   94.251778   10.288623   29.053171
H    7.788826   39.027637   30.458826
H   77.647964   43.123062   71.880264
H   63.894562   48.259018   51.452469
H   43.753746   69.044136   42.368896
H   26.836960   74.401031   73.499260
H   17.101070   36.745331   59.766335
H   32.238323   33.899220   94.390648
H   90.881927   11.742452   62.375576
H   67.174980    3.237663   70.730492
H   79.555573   34.430649    8.506895
H   21.586487   13.001431   33.406586
H   39.830784    4.074255   60.556557
H   64.334419   65.615700    8.115623
H   91.886810   38.378685   81.123390
H   10.984612   85.502327   39.256470
H    2.594259   21.182404   16.237518
H   46.000027   31.540781    9.829038
H   81.445137   89.358383   56.278988
H   34.002769    1.391912   44.374828
H   12.320075   12.893301   39.538055
H   66.968689   17.758646   85.476540
H   20.313211   64.093536   16.440535
H   48.966484   53.008919   50.555664
H   38.330563   82.359573   28.640602
H   78.529800   65.482666   88.235313
H   83.849876    7.806965   25.237303
H   37.512791   22.902851   95.938850
H   66.304977   95.872894   55.651245
H   56.407375   27.764006   63.172707
H   56.958916   71.979912   19.018225
H   91.840385   78.610985   63.697697
H   43.304676   66.014053   86.577209
H   57.973606   71.907394   67.599724
H   74.115990   40.244507   20.212208
H    3.864933   55.895950   70.596771
H   90.383347   34.203949   27.097319
H   97.501328    9.226599   85.563583
H   95.631828   98.798805   55.103142
H   91.873283   79.881027   32.548782
H   38.315926   71.652557   70.040840
H   51.480331   69.524063   74.159309
H   58.089821   32.315205   69.185898
H   87.292412   98.668869   53.054596
H   87.574532   92.673637   17.808395
H   59.002060   58.902519   41.754940
H   57.154423    9.657620   88.448982
H    8.142891   85.925636   32.140747
H   35.239723   57.091396   18.902998
H   63.119102   97.402466   16.551786
H   13.647581   23.806679   62.985142
H   94.103577    6.326358   95.110657
H   22.164581   81.413750   24.422504
H   14.647841   47.148758   86.884094
H    1.931129   62.739902   81.110100
H   60.980785   50.358307   16.291847
H   13.805184   33.121662   39.810703
H    0.004799    9.137247   84.310730
H   52.501118   53.959702   46.670490
H   79.738144   45.077114   88.126251
H   12.327924   44.280872   52.771507
H   45.288673   37.670338   49.976608
H   72.424210   61.818127   67.958069
H   77.297607   64.766800   23.794767
H   16.782858   59.752533   29.445499
H   66.519958   81.283295   76.169220
H   99.193298   52.163883   42.879890
H   78.910156   24.574699   60.181561
H   77.202156   74.685799   73.509018
H    6.581892   53.498032   63.035477
H   20.950958   19.063700    2.469570
H   88.278229   79.882034   36.643944
H   52.728973   43.252331   99.878372
H   10.990072   32.027573   93.451118
H   87.055283   21.882223   62.212120
H   51.204594    3.999647   38.869827
H    2.213981   68.020538   88.356224
H   53.685699   71.538765    5.005529
H   12.967257   48.165600   56.317848
H   18.411238   43.015472    5.713671
H   58.892876   50.407154   81.610207
H   34.558819   97.929298   94.771484
