200
TIME:    0.387, STEP:   387
H   13.988220   61.987133   17.853186
H   29.274502   35.024197   95.864792
H   15.056637   75.572319   52.588737
H   22.797667   78.691933   40.655682
H   13.649406   87.454941   51.544994
H   84.836426   48.825184   61.198292
H    5.488990   55.199829   52.496662
H    6.182815   95.234192   19.854454
H   93.398331   85.302437   44.133354
H    5.686536   72.839775   90.274193
H   17.317450   97.734444   97.607010
H   31.385666   45.946484   19.746521
H   14.782107   91.886497   55.266869
H   97.455505   53.827137   49.349331
H   12.524673   73.076202   42.616901
H   25.015617   19.909592   51.151905
H   91.122711   14.603235    8.294970
H   33.071445   90.233742   40.903297
H   69.916374   24.380018   44.647808
H   90.523926   77.685936   31.772274
H   59.849228   84.096367   19.105740
H   86.756432   54.433189   64.909889
H   90.603241   61.472649   45.609024
H   11.721854   89.399399   91.125137
H    9.635855   18.616144   40.164997
H   18.539408   68.860023    2.101484
H    1.742403   61.746357   54.992279
H   97.883820   76.193497    1.118068
H   17.259949   52.061592   37.477596
H   86.406654   24.702286   93.540924
H   13.169572   57.590702   16.374537
H   29.252907   66.951645   97.222275
H   23.571442   12.148648   74.974709
H   91.561394   63.738297   40.859703
H   40.934071   83.726852   33.100933
H   28.259464   46.570286   81.162125
H   90.483627   71.256218   87.058510
H   25.643770   48.557831    8.558039
H   47.629753   41.136757   47.699184
H   88.672997   39.083988   57.954193
H   80.548050   98.356911    6.403528
H   20.656115   40.024387   35.472347
H   74.055069   84.405029   55.786724
H   36.953781   70.373497   24.005745
H   33.799557   80.780113   49.668709
H   38.991146   10.012849   44.286606
H   82.744308   19.010334   99.402260
H   86.537048   65.548363   42.363052
H   92.765358   23.173717   61.272316
H   56.856903   18.464884   99.493263
H   74.711334   68.635513   22.042992
H   15.518748   38.228130   66.702171
H   56.140781   90.215408    9.851356
H   20.218786   85.285828   83.880035
H   70.976700   73.115700   86.019226
H    3.421219   68.728668   83.461792
H    5.010965   17.301735   48.077732
H   69.014694   61.996670    2.650272
H   25.079315   77.317154   10.681847
H   39.703400   95.163734   64.276787
H   49.943432   12.508396   37.941639
H   92.577873   16.773115   50.192749
H   75.497124   28.251678   79.925552
H   27.687708   65.362061    6.949565
H   73.711418   78.270523   23.940674
H   32.973400   22.272190   35.505600
H   80.684181   20.061262   88.872200
H   96.518227   91.784142   90.181900
H   21.751297    7.839742   60.119202
H   44.390778   44.192101   50.974743
H   58.400677   79.134621   77.213394
H   28.009096   19.957912   43.735832
H   82.159317   28.204464   94.573402
H   12.654398    5.733541   64.851906
H   80.934982    3.251168   60.700783
H   57.029358   13.886822   61.916889
H   94.806259   35.422657   70.066277
H   21.110537    8.646729   42.940880
H   12.648155   36.242645   31.682682
H   66.061089   89.847115   87.290253
H   49.607121   27.617599   98.951401
H   33.100113   65.946823   83.312828
H   10.426195   15.278768   85.978683
H   19.880405   66.666435   98.642670
H   33.673519    0.878305   53.616306
H   28.808710   80.631027   24.722752
H   42.443592    3.090425    2.108329
H   74.109032   13.073209   16.986708
H   70.184921   72.415062   77.700256
H   22.707851   92.636093   53.248272
H   35.080624   36.161797   80.100639
H   83.031479   89.825211    1.575368
H   54.242844   15.204210   91.543190
H   53.436127   89.152405   73.141022
H   28.849752   54.937744   74.062164
H   63.184456   30.995914   22.150028
H   81.299660    9.194757    4.660141
H    2.853573   30.722967   49.985378
H   33.686989   68.305473   53.402195
H   69.760376    0.316177   27.286295
H   16.424772   84.490784   75.861824
H   96.038597   78.880547   65.053741
H   26.226568   31.797855   32.557114
H   28.939522   68.210892   95.999886
H   25.143875   25.540913   29.853439
H   93.242676   19.575802   37.008556
H   72.621826   31.922056   55.575104
H   63.885307   39.918430   13.057384
H   76.532349   38.234097    6.240788
H    9.088897   26.010809    6.256720
H   49.128605   94.789368    0.899276
H   91.896523   67.041931   92.185593
H   54.540897   81.980492   90.737915
H   62.726219   16.228209   71.163239
H   58.944725   88.089828   21.618429
H    8.039337    1.496858   85.565941
H   26.531063   10.512617   85.893784
H   40.025303   34.231972   31.040123
H   24.444992   63.232616   76.274445
H   74.661972   49.608761   54.826435
H   42.088814   22.736279   82.702896
H   11.946335   23.997707   52.512188
H   35.780403   15.622790   28.389904
H    1.911481   62.028820   11.427854
H   72.517769    5.312428   87.951340
H   53.107891   66.374435   22.693096
H   91.732719   49.876297   65.377625
H   72.213272   88.722893   36.244099
H   94.276733   47.162613   81.540283
H   74.870216   23.452600   69.005966
H   54.542923   79.936981    9.029041
H   76.057632   87.509354   12.793607
H   91.957741   89.746674   98.468636
H   93.712547   16.771997   51.516666
H   11.688038   98.712143   49.661964
H   58.442848    1.438190   81.515945
H   69.136086   86.939110   62.656586
H   92.472206   59.631126   80.875702
H   50.155563   46.389381   71.515320
H   43.527573    2.039629   91.372910
H   57.895206   58.745762   19.658432
H   50.471039   45.477283   49.673698
H   50.279972   59.466660   94.426003
H   50.977226   21.206491   80.560371
H   47.211628   64.891823   53.875385
H   51.326237   64.508575   22.805820
H   48.207970   96.134041   46.229347
H   38.638519   67.946793   67.981590
H   69.115082   58.654827   96.483116
H   14.147836   90.279694   84.495872
H   71.038795   63.806454   50.234451
H   39.975361    3.042287   43.545681
H   83.004692   26.342014   98.304131
H   13.795821    4.516912   72.319916
H   19.441643   57.761185   63.412899
H   67.865936   43.893398   58.583492
H   60.849987   65.291893   82.496384
H   48.136021   34.301338   13.168043
H    5.653914    1.180441   97.153397
H   62.031601   50.945923   83.882324
H   55.399906   78.437286   79.507385
H   36.702267   22.294508   34.270489
H   71.546974   28.160845   37.170929
H   16.670475   24.498077   64.909302
H   57.546677   27.076326   11.268924
H   14.446370   59.761993   61.498253
H   72.368561   95.189339   53.780052
H   23.760628   37.620754   54.091358
H   96.070389   27.692162   36.509823
H   33.181332    9.350389   88.747986
H   76.556702    7.381990   35.963737
H   41.084694   59.987133   57.909527
H   40.513195   71.137833   86.287857
H   69.415802   71.021683   77.649818
H   64.605560   93.930725   92.319489
H    5.445914   48.454887   23.427776
H   33.907616   57.513218   93.057266
H    3.032824    9.341049   66.759872
H   71.842232   17.962290   67.415550
H   79.307846   56.031960   88.458694
H   78.734016   90.457199   38.301464
H   22.192688   30.285488   74.982643
H   58.867462   90.013229    8.979442
H   54.682018   25.492455   82.598259
H   87.423943   81.958534   77.791214
H    2.337827   37.464172   84.689919
H   36.470612    2.006570    2.522289
H   83.358833   73.451241   30.670122
H    2.361364   61.828934   68.223450
H   52.286716   57.473667   67.560257
H   54.842674   26.160870   78.251717
H   46.447842   88.924057   22.752008
H    7.365709   21.021208   61.173580
H   32.535282   69.397804   36.275780
H   79.850006   47.689392   21.335432
H   75.687027   10.744155   27.552401
H   10.438405   89.567726    8.428388
H   24.637337   94.484619   42.821011
H    9.953032   12.023212   71.442711
H    6.474547   30.012514   95.706505
