200
TIME:    0.121, STEP:   121
H    5.814516   62.869930   13.304750
H   26.903633   31.140791   85.066254
H   20.631914   63.929543   39.486809
H   13.831247   75.582863   47.611515
H   16.473639   80.713211   55.369434
H   93.489868   56.044842   69.072075
H    1.635162   55.388565   47.348026
H    0.221896   83.747681   29.296326
H   82.595734   89.290245   50.622421
H   15.050243   76.565788    0.766238
H    8.045831   92.052071   89.201157
H   30.285721   38.846561    7.072123
H    8.253467   83.058525   66.168907
H   10.028564   52.704868   36.531521
H   25.367275   71.028519   43.271389
H   32.769012   30.869469   56.890087
H   78.609314    2.145190   21.209684
H   39.388012   77.446373   45.638947
H   61.066082   34.010014   40.732044
H   89.677658   81.338890   42.083752
H   56.656952   70.817879   31.292400
H   92.678276   44.265800   75.160484
H   98.568710   63.406685   51.991547
H    6.103352   86.999245   91.962448
H   98.074127    7.917871   49.656590
H   18.759600   57.055489   10.886839
H   96.591515   56.408985   44.297241
H   91.779327   65.220428    0.418153
H    6.056564   60.146797   39.035175
H   98.426903   17.576488    2.742202
H   13.516856   46.477604   16.049322
H   34.090027   60.717270   90.673340
H   29.998611    6.424926   71.725609
H    0.365061   63.448090   36.210304
H   53.699116   94.718185   35.124264
H   36.948421   52.635204   78.111908
H   82.848953   76.997444   85.061562
H   38.801262   41.677086   20.517912
H   57.474464   50.661835   41.786472
H   91.223976   40.177845   68.344818
H   80.468903   10.782667   97.574165
H    7.416191   45.602245   43.359684
H   78.844498   90.515610   45.909542
H   37.546371   57.454731   14.492337
H   24.711212   72.664467   40.069557
H   42.734409   16.935484   41.393669
H   77.731644   32.042248   93.569710
H   93.012924   65.552422   51.925674
H   82.478233   33.268047   61.080536
H   66.375641   17.264482   10.747035
H   81.039062   72.002319   32.584808
H   25.687140   33.649761   60.982731
H   48.967800   97.827759    6.371350
H   24.177675   79.672455   79.940933
H   82.235916   79.031456   94.621933
H    6.831150   75.281662   74.751526
H    5.770094   16.295143   50.931095
H   66.108566   55.813030    7.451243
H   30.692181   72.178665    4.248335
H   45.855583   96.657387   69.194069
H   50.804920   17.698128   45.713299
H   87.798592   16.142981   48.154198
H   68.168892   22.741299   88.899643
H   21.242781   64.982559    1.010597
H   69.435432   74.305038   13.063428
H   43.407658   11.937982   30.724289
H   90.620216   25.672098   83.376534
H   98.007820   91.179375   84.915558
H   12.289739    4.245133   63.486008
H   45.921974   39.555893   50.988949
H   58.517368   74.533928   70.098251
H   35.484734   26.949768   45.597824
H   73.716934   23.605801    3.480324
H    3.988525   11.580346   57.108543
H   77.696030   98.945122   73.208092
H   50.305893   23.277901   63.655087
H   95.930557   25.520109   73.828819
H   30.962858    3.803010   52.036736
H   10.625839   24.391529   37.574085
H   70.069191   91.330620   99.905121
H   38.317463   32.113258    2.899994
H   21.404016   70.730164   91.536034
H   11.463989   12.360970   93.761505
H   28.554649   57.968346   89.972992
H   43.145832   98.065506   61.154583
H   21.314573   89.937943   30.260021
H   30.521772    2.536139    1.498515
H   76.321098   22.973297    6.953782
H   62.047924   71.754692   76.733261
H   24.040165   80.713257   56.174694
H   46.231140   33.865509   81.283791
H   84.884338   87.491379   95.771255
H   41.606667   18.204199   99.119011
H   65.364151   98.708939   65.837143
H   22.109545   58.535904   62.983566
H   74.200142   25.048702   34.656723
H   77.691353   18.395128   93.204140
H   10.166077   26.589548   47.466869
H   39.714363   70.970100   52.459530
H   65.135330   95.993561   27.221354
H    4.556937   77.136169   63.336193
H   86.147209   74.856209   66.521011
H   20.712637   41.518784   28.839800
H   16.157734   67.719772   85.436760
H   25.496487   29.036587   21.229424
H   82.712021   32.599113   49.462086
H   60.021168   28.619177   56.813049
H   65.452095   29.705379   23.343060
H   69.772354   41.591770   93.378334
H    0.544050   29.719572    4.954848
H   45.628872   97.100876    0.712126
H   81.215691   60.352413   89.155670
H   59.160870   78.893745   96.523788
H   63.627281   21.962839   78.022675
H   67.821404   77.013260   30.945131
H   18.894886    9.278646   73.565987
H   37.467602    6.767029   82.792831
H   41.374866   21.139175   36.357201
H   14.343053   53.245846   89.421021
H   67.642212   44.299801   44.903591
H   39.312569   20.968655   91.419250
H   23.423714   30.299053   44.687763
H   29.367437   26.841427   20.499016
H    5.830576   71.601379   23.076311
H   80.477150   11.898451   96.748871
H   43.362621   59.096252   27.829048
H   98.344566   48.634293   75.650543
H   78.031616   86.636650   33.997532
H   91.003281   56.791191   87.602158
H   61.977318   24.713377   64.474274
H   43.805267   89.434662   98.863701
H   86.267639   84.871109    6.520703
H   92.826332   76.805069   96.489952
H    6.755756    9.951852   48.242199
H   98.547401    3.521806   61.885155
H   65.527550    1.779576   85.434753
H   68.695702   86.261284   49.414627
H   90.203316   67.936043   85.078629
H   43.202774   42.669456   71.578232
H   43.383484   14.797318   98.764053
H   44.726307   66.568489   11.066017
H   62.716553   37.395123   43.472809
H   58.830929   54.570686    3.397984
H   63.165916   30.835443   76.152473
H   34.708378   73.713707   45.177296
H   41.579952   59.925243   35.545498
H   41.916771   97.298927   48.133957
H   45.901810   77.848328   69.507713
H   62.004002   69.760300   99.127449
H    5.652969   87.351311   94.446991
H   80.414711   59.288967   52.242561
H   28.778187   10.402405   51.881519
H   70.647560   36.288197    7.642236
H    6.764139   98.411034   78.893204
H    8.893738   50.736351   58.600132
H   59.969467   43.233837   50.399860
H   58.065624   57.315094   79.346725
H   44.354198   38.569206    6.936183
H   17.828207    2.182720    7.017924
H   65.013489   61.799255   73.674347
H   52.787029   89.243942   86.579910
H   49.191311   23.672991   36.574894
H   60.096996   39.758129   37.281532
H    6.906669   16.683800   76.290283
H   60.093597   18.050486    8.655286
H    9.863435   68.225182   62.952332
H   76.948959   99.491707   50.960175
H   23.528259   25.518314   43.091908
H   92.455994   28.557201   37.137928
H   21.042362   11.357738   91.743408
H   81.638367    4.218633   35.986061
H   50.273903   69.866760   57.092686
H   35.373692   82.567520   93.772354
H   72.687859   77.396896   71.487595
H   76.968781   95.931732    4.826447
H   97.233162   47.018059   23.172577
H   36.640228   49.203762   81.929962
H    0.675334    9.087372   63.358562
H   78.644844   24.145929   70.526649
H   91.961273   53.178596   84.706299
H   83.590416   80.925018   44.486118
H   16.827412   29.960781   65.271873
H   71.113403   90.289230    3.714776
H   48.889778   24.999947   72.812401
H   83.984077   93.495781   78.887100
H   96.769157   35.219635   83.358620
H   27.208607    6.562968   96.628616
H   96.138084   62.184067   21.362700
H   10.064531   60.642738   65.183380
H   47.449596   58.920643   64.199539
H   42.135468   34.961445   80.151253
H   48.628452   81.695267   26.140123
H    1.457207   14.692971   55.080250
H   37.182652   58.781414   30.914967
H   88.978333   59.570625   22.205545
H   75.037613   10.091443   31.196730
H    8.670274   82.314583   99.450211
H   32.367924   99.771255   50.322758
H   13.500202   11.278923   83.339165
H    9.248946   39.024261   99.402077
