100
TIME:    3.215, STEP:  3215
H   99.905426   27.189354   96.202591
H   11.838970   79.057617   80.801254
H   35.017700    5.204398   85.600731
H   82.016235    0.191176   63.939747
H   66.374588   30.453930   78.533112
H   78.167122   97.725044   97.137779
H   84.471901   78.430275   41.870125
H   67.193634   66.739304   13.002775
H   74.597099   77.184204   97.713554
H   86.983986   62.545998   33.586082
H    1.203565   95.605225   30.064730
H   33.133278   84.842133   64.081795
H   38.756210   67.195389    5.584543
H   95.893349   95.166328    1.902025
H   19.607250   82.850723   96.229561
H   72.256119   30.533539   66.168312
H   65.575966   94.618576   66.062485
H   69.846031   38.355309   88.085144
H   95.342323   13.225406   32.740841
H    5.903069   37.541355   35.224754
H   73.494064   36.154144   69.980087
H   70.605530   48.351944   45.491318
H   42.819145   68.474831   40.366180
H   20.333206   75.240570   68.300743
H   14.597600   31.193802   60.283302
H   31.917284   31.813700   87.829216
H   84.846008    8.832505   63.764660
H   61.268551    6.505020   73.044029
H   81.077637   40.781662    5.198084
H   24.270393   11.268815   38.971466
H   42.585987   10.351169   55.018379
H   68.754280   63.681435    1.635422
H   96.817230   33.257072   87.429543
H   13.942357   79.087227   36.307404
H    0.854122   15.890958   20.499832
H   52.086147   37.039951    9.588445
H   88.159309   86.794907   61.794735
H   31.109779    0.110757   49.314327
H    9.365268   11.368299   32.754456
H   60.375507   11.205394   90.983742
H   15.529390   66.495728   18.089705
H   42.675285   56.150780   53.844391
H   38.933514   82.779343   33.696705
H   74.059738   66.655457   95.079796
H   77.777641    5.045219   31.227560
H   36.609699   24.237995   96.222969
H   66.851852   99.679657   56.323624
H   56.411114   28.484716   67.503914
H   59.004890   66.182182   16.225904
H   93.307976   79.675896   58.801991
H   43.299335   59.256088   87.315277
H   61.375553   65.412186   63.004574
H   75.567558   40.650391   16.146694
H    2.244068   54.753601   73.685760
H   84.809921   40.338669   27.692526
H   97.588913    9.152899   83.180618
H    0.069841   96.778999   61.760704
H   86.660881   73.270462   30.745617
H   43.836479   74.610168   64.667152
H   46.861267   74.904160   72.168343
H   62.505409   29.060123   63.727856
H   84.807976   98.017319   49.887100
H   92.326576   87.897026   13.008286
H   63.809113   59.283302   39.854229
H   59.933125    4.066752   94.967690
H    3.842729   82.445717   36.279694
H   29.623459   59.511211   22.282782
H   58.283745    1.405842   19.898191
H   17.136490   18.776924   58.594654
H   95.522034    9.847235   94.963257
H   19.941566   76.651024   23.582699
H    8.876147   44.825607   92.008911
H   97.366974   59.277607   79.315666
H   59.440029   45.928299   12.131538
H   17.180075   33.221531   45.117100
H    1.659748   13.623598   79.600342
H   58.856937   47.892273   47.908436
H   83.026871   40.499706   91.991760
H   15.684609   44.075260   53.552834
H   41.855751   33.857700   43.946030
H   73.793533   62.542309   72.141876
H   82.549530   65.223953   17.941229
H   21.211798   60.921051   36.112675
H   71.336090   87.273285   69.775482
H   95.784943   47.785145   36.094154
H   77.299438   27.145920   65.042557
H   81.877296   69.596230   76.846878
H    7.708487   47.893631   62.307556
H   22.403862   15.166386    1.896863
H   82.089569   77.002396   39.146004
H   55.593658   47.031857    1.356669
H   16.169760   37.291779   94.785194
H   91.542435   23.982672   67.625328
H   57.970570    8.245735   43.589294
H    1.003592   61.750507   89.964806
H   59.467407   68.774483    1.389826
H    7.411056   52.182781   52.292122
H   18.668119   43.611481    4.593618
H   55.558220   50.708897   75.747322
H   38.906582   96.132729   88.028473
