100
TIME:    1.778, STEP:  1778
H   97.083893   58.969650   97.518204
H   51.811958    1.144623   90.155998
H   10.317068    1.820995    2.463668
H   81.775040   59.396690   42.705280
H   79.245667   15.272054   17.495838
H    0.444964   99.281853   54.827625
H   59.783916   81.396950   29.494774
H   80.139000   42.421154   44.944389
H    9.921364   15.346071   88.168236
H   26.251360   41.912804   77.315331
H   34.869797   37.784046   68.482697
H   87.978577   12.812456   66.369057
H   30.164165   54.135948   48.409851
H   67.045464   99.595558   92.546104
H    2.126432   11.209240   65.307358
H   30.035492   56.220078   85.451920
H   81.118927   99.578964   35.237457
H   39.139526    8.236481   37.906540
H   72.954979   52.944168   57.032963
H   44.614975   68.054062   37.387123
H   58.767593   79.212097    8.986725
H   32.834171   46.446693   67.862465
H   62.005165   80.161858   81.479080
H   53.846062   58.006046   75.025116
H   65.992424   45.162224   49.680511
H   38.506382   74.628677   22.520678
H    8.759476   68.569656   35.248753
H   82.519241   39.430737   25.543127
H   49.831833   10.406257   73.125450
H   69.169807   46.834579   24.734230
H   86.043221   81.487213   68.716736
H   78.021240    3.390104   34.665688
H   95.597122   38.394890   57.973236
H   53.226189   10.779596   96.847519
H   36.576851   24.517128   32.996094
H   27.145184   24.154764   14.527474
H   50.331932   39.422707   48.564701
H   90.503624   26.411663   47.909252
H   70.789597   42.552940   71.714783
H   95.725929   45.733105   77.924088
H   13.735153   17.190939   84.233444
H   71.824677   91.654793   86.333603
H   26.555792   74.162079   29.900486
H   65.821938   42.569984   54.576832
H    2.427610   61.737698    8.258139
H   55.148876   96.829414   90.390419
H   54.854115   21.653406   42.816109
H   56.334370   13.689554   78.590508
H   17.003950   85.195457   73.550400
H   63.180141   57.811695   59.307850
H   43.408970   97.988701   72.163803
H   91.540947   98.753571   57.340702
H   45.762222   32.318176   99.605644
H   35.518108   78.197762   10.275103
H   99.212708   14.373583   15.493734
H   95.790909   10.663355   32.099487
H    8.970074   38.243721   25.090155
H   93.663666    8.977239   67.758377
H   30.503891   13.893094   74.986053
H   41.688587   64.452118   13.039224
H   71.858231   95.887520   75.768303
H   35.806458   11.395037   14.904733
H   94.833023   85.906746   11.580543
H   65.132751   51.466370   78.868935
H    2.893032   18.837860   61.143780
H   92.120033   53.883369   51.314587
H   44.916611    9.833758   52.904491
H   57.547173   19.222965   51.201283
H   45.518341   22.030579   48.720253
H   66.403137   37.571259   97.989166
H   65.572853   74.425545   40.823124
H   27.363176   92.516571   86.798668
H   91.062317   30.359142   16.157566
H   91.060173   36.864128   97.536736
H   47.895515   31.173582   36.182842
H   67.694572   21.525343   76.292076
H   28.385496   72.442612   22.493132
H   15.514003   34.461372   12.631398
H   46.777908   48.293797   37.515678
H   12.329065   12.119833   67.744911
H   45.676128   47.675884   86.255852
H   74.728958   55.839249   38.102615
H   30.296795   36.933044   99.245697
H   72.481331   64.307350    1.029271
H   65.755615   37.669548   75.395325
H   10.368282   74.365059   65.252968
H   85.903313   74.077835    8.325069
H   84.577454   62.943604   77.260445
H   92.580269   95.176445   13.653120
H    9.138954   36.123962   87.776955
H   96.785591   69.437119   71.009842
H    9.841122   29.228041   67.398521
H   99.364525   80.906235   56.466141
H   19.077854   21.081068   46.699600
H   25.851856   90.466858   56.942924
H   40.777115   25.519541   75.612854
H   21.473057   69.716286   34.934967
H   13.393352   31.376282   27.588074
H   24.012657   44.514553   96.116837
H   49.661179   33.033123   26.439178
