100
TIME:    4.540, STEP:  4540
H   10.300938    5.680245   94.989517
H   75.091805   50.880753   64.368774
H   57.793159    0.530333   70.053169
H   82.238632   45.602837   91.309944
H   54.506683   36.658524   42.605911
H   57.622601   96.289574   28.357313
H   15.029360   67.901352   45.486919
H   63.051247   81.369415   91.345894
H   42.026070   49.790939   14.309734
H   50.773735   81.571037   85.471130
H   77.955292   48.919209    2.434082
H   82.561729   51.257317   69.766945
H   54.360306   87.047005   73.904785
H   30.286411   91.082314    2.735133
H   35.724800   64.496277   32.538197
H   18.980728   14.644188   56.181580
H   59.027351   82.256210   86.682457
H   98.153542   73.915733   42.146435
H   15.980415   68.813629    2.548363
H   70.199944    9.404093   25.436899
H   94.866692    4.245333   34.020882
H   97.634567   50.110901   32.655319
H   25.128487   57.698692    2.454589
H   97.226273   91.131836   69.893997
H   67.207672   26.114746   70.068764
H   25.850439   92.441223   63.496326
H   70.590416   53.756008   90.048012
H   49.469364   68.351562   16.838953
H    9.888921   60.996243   42.563393
H   75.077194   78.474541   44.305244
H   94.732094   29.166401   50.188591
H   52.415539   27.076935   78.973518
H   90.148659   36.313835    6.796010
H   69.927246   57.658813   80.488548
H   67.919083   15.731094    1.183865
H   67.292099   41.021229    5.154483
H   15.244421   38.271957   66.199570
H   76.344521   75.869453   42.816204
H   53.439251   82.499138    4.352852
H   35.576363   87.163689   95.231873
H   24.974590   11.963300   49.306133
H   23.591812   15.615108   16.094511
H   50.346516   90.724976   29.403154
H   89.449661   88.854706   24.632223
H   62.843235   52.764687   44.610981
H   19.515469   49.510365    1.603436
H   77.203415   71.738365   69.046776
H   56.481876   42.130493   49.487389
H   97.741074   56.445980   63.373932
H   21.095028   99.833138   66.129494
H   43.198246   31.336193    1.285614
H   25.767527   42.461361   76.019958
H    3.044584   48.333191   39.193035
H   71.554039   33.130562   32.153160
H   79.313232   56.463306   38.962070
H   99.246780    7.758083   38.074493
H   84.067978   58.546959   87.779152
H   87.997940   48.140862   96.614365
H   48.336166   30.595730   62.946037
H   59.424358   76.748047   34.482185
H   46.087646   67.439354   60.420616
H   37.781151   85.684402   89.933167
H   82.281410   97.481247   22.149040
H   54.794060   66.494476    3.876484
H   12.522035   98.241364   18.359568
H   22.445564   16.575813   14.623567
H   23.316008    5.323235   86.252975
H   66.756889   77.184464   83.240852
H   83.175308   23.570877   75.492432
H   22.367098   76.492188   92.173187
H   77.866692   86.498077    7.686404
H   99.623932    0.851012   89.019402
H   10.974676   93.740334   45.344048
H   30.266079   62.080723   33.402061
H   81.062386   35.111904   45.561123
H   32.986427   98.543663   90.445236
H   79.157944   33.049076   71.340981
H   45.277782   53.861889   65.168709
H   79.221779   40.183315   68.339256
H   76.874969   61.697178   29.796074
H   99.712875   76.250046   51.333813
H   81.967049   73.877213    7.145227
H    5.038643   83.044128   62.311543
H   62.493423    0.656333   48.757515
H   31.269579   64.906624    7.650327
H   46.805149   75.817543   57.054611
H   70.371056   73.257935   40.028320
H   29.033312   41.810738   48.529060
H   49.901962   41.391838   91.059456
H   64.942612   22.487251   86.511230
H    9.818229   18.579170   29.338297
H   14.211631   36.931641   20.034349
H   76.476357   63.741165   70.089706
H   86.035995   88.617386   32.927837
H   78.096535   43.064491   20.410892
H   68.906967   16.452072   32.952202
H    2.238862   28.221752   76.089279
H   23.530523   54.893066   83.386665
H   92.438110   56.420452   64.765465
H   21.208315   62.126789   60.388493
