200
TIME:    0.925, STEP:   925
H   30.519617   60.201626   27.052652
H   34.069275   42.878376   17.705988
H    3.780652   99.120491   79.088127
H   40.932373   84.980202   26.587116
H    7.937320    1.090494   43.809849
H   67.334351   34.223019   45.274441
H   13.283652   54.818100   62.910069
H   18.239094   18.464703    0.758066
H   15.246384   77.236870   31.008772
H   86.747894   65.302383   69.053337
H   36.069382    9.226916   14.608315
H   33.610367   60.306477   45.381397
H   27.986652    9.742575   33.216881
H   72.027420   56.096989   75.274071
H   86.550369   77.217758   41.293163
H    9.334157   97.742844   39.546108
H   16.438219   39.798813   82.181763
H   20.296774   16.097868   31.325253
H   87.816597    4.902849   52.567661
H   92.235550   70.297630   10.916603
H   66.305786   10.952513   94.457848
H   74.779167   74.997307   44.177483
H   74.492630   57.560951   32.700012
H   23.117289   94.304413   89.438141
H   33.019981   40.253620   20.967716
H   18.094057   92.736565   84.332611
H   12.161325   72.541496   76.623596
H   10.231380   98.387146    2.533686
H   39.919472   35.708809   34.327305
H   62.094860   39.115120   74.930603
H   12.467170   80.067574   17.032301
H   19.469559   79.561020   10.468387
H   10.572128   23.724857   81.546196
H   73.755577   64.325256   50.263374
H   15.115394   61.496494   29.007881
H   10.677690   34.304993   87.322594
H    5.924963   59.644264   91.097450
H   99.032326   62.474525   84.369164
H   27.718269   21.872290   59.657978
H   83.513496   36.871601   36.938568
H   80.708130   73.224358   24.260906
H   47.434616   28.742558   19.518961
H   64.368179   72.046036   75.763885
H   35.755234   96.503471   43.246552
H   52.182072   97.194466   69.083534
H   31.420105   96.011612   50.137733
H   92.882706   92.651749   11.197139
H   73.439224   65.540154   23.022110
H   13.571746    2.757691   61.660202
H   37.604210   20.892763   76.733177
H   61.913147   61.825958    0.721857
H   94.953468   47.488140   78.268974
H   70.653404   74.833336   16.878145
H   12.211467   96.639191   91.847092
H   48.204300   61.150749   68.619766
H   96.524956   55.473545    1.078894
H    3.475626   19.337624   42.306644
H   74.892502   74.503426   92.939095
H   13.726978   87.710037   23.693684
H   27.260262   92.142738   54.331306
H   48.201023    2.011896   22.222380
H    2.247870   18.047598   54.317795
H   90.318886   39.396049   61.774696
H   40.723625   66.129623   18.961697
H   82.359840   86.290939   45.941029
H   11.868647   43.173363   45.176071
H   60.587990    8.712700   99.987495
H   93.505440   93.007317    0.833447
H   40.887558   15.110040   53.309647
H   41.293846   53.569092   50.946011
H   58.164661   88.439781   91.604172
H   12.888723    5.816820   39.969849
H   99.234512   37.505520   76.558250
H   30.182030   93.908035   80.515114
H   87.485947   11.960134   35.404045
H   70.627945   94.893539   58.401287
H   92.532303   55.451122   62.455902
H    1.183973   18.443417   24.543999
H   16.742832   60.206047   19.752350
H   57.952942   86.846642   61.775970
H   72.441086   18.524853   90.963821
H   56.757057   56.270607   66.680931
H    8.327198   21.180176   70.237488
H    2.336341   84.258812   16.177008
H   14.515232    6.567487   38.369717
H   43.965214   61.807266   13.523425
H   66.555931    4.211497    3.341765
H   69.635002   93.049911   37.278629
H   86.652634   73.724434   79.637634
H   20.013172   16.751751   47.329418
H   12.528628   40.806168   77.707649
H   79.283966   94.545517   13.314426
H   79.801491    9.136564   76.220665
H   29.311142   69.823776   87.913528
H   42.481415   47.660263   96.469254
H   40.904610   43.024487   96.854416
H   88.597664   90.585365   27.830475
H   97.661514   40.736324   57.070004
H   21.496284   62.916115   55.308788
H   79.114792    9.057681   27.417643
H   40.428555   99.365906    1.195569
H   16.043262   87.019997   62.086105
H   37.378807   12.135828   40.074715
H   54.790504   69.204208   17.365255
H   24.430698   18.470715   47.295998
H   14.542309   93.235725   11.819853
H   88.510223   36.948193   51.080482
H   60.714493   60.574902   92.254311
H   90.204819   31.443012   32.255833
H   26.371374   18.509626    8.889830
H   56.207012   90.114212    1.277798
H   13.498170   80.570740   98.313782
H   45.196743   88.223610   79.035660
H   60.903770    4.629670   57.290638
H   40.991142   10.492552    2.754288
H   86.083588   85.759575    9.836801
H    4.411028   18.088337   92.165634
H   37.295734   60.712891   20.286034
H   44.876087   83.431419   49.685860
H   88.859833   60.346432   74.897064
H   47.703926   26.311398   65.073578
H   88.733772   11.252880   68.336967
H   48.750984   92.932144   44.350464
H   93.985329   42.669407   87.867699
H   56.419472   91.992477   70.157837
H   72.817329   81.094597   12.305731
H   78.359886   52.388321   44.600067
H   60.445343   92.942436   40.787907
H    0.897506   27.688271   69.279800
H    0.946827   20.902609   78.171570
H   76.260437   60.727386   29.589054
H   55.407318   92.845352   25.480968
H   90.200966   15.921173    2.471451
H   67.332191   30.565567   58.137440
H   38.265499   88.984207   24.939873
H   44.113640    0.747716   73.589935
H   70.026787   88.310051   89.439194
H   97.061165   42.832993   72.375046
H   64.217972   53.913139   71.388077
H   43.819000   76.237892   76.423904
H   84.530052   42.924526   37.037369
H   25.704058   61.823910   62.215347
H   32.985180   69.367928   76.279503
H   26.324913    1.731786   89.475594
H   72.500160   47.049065   71.467758
H   71.039383   73.776794   97.038795
H   60.932274   93.777992   42.377167
H   23.948105   47.920380   64.894920
H   83.497650   36.192326   91.134804
H   31.297884   96.153397   64.362740
H   52.076771   72.943329   46.172935
H   62.622570   88.155090   26.685978
H    7.997790    6.225300   79.418800
H   28.017363   16.866049   59.024300
H   40.775375   71.970459   73.145065
H   83.836990   45.227398   75.136726
H   66.481522   81.427132   88.866745
H   55.784969   25.669334   25.772287
H   81.030396   99.153076   77.200867
H   55.999870   28.994305    4.528178
H   60.684597   56.580215   65.202805
H   11.441635   19.506449   29.609699
H   94.705208    4.704037   36.947227
H   36.418571   40.302895   41.892597
H   52.395386   45.331600   16.555099
H   23.715616   42.643700   58.557297
H   63.104446   86.487556   59.483414
H   24.230606   62.098621   76.338364
H    3.381412   25.942570   35.239445
H   57.733082    5.290413   82.689575
H   66.278748   13.780057   35.918587
H   22.498474   40.003819   59.561634
H   50.908131   48.019226   71.150040
H   62.790577   58.154652   90.131950
H   39.600250   89.883575   67.022751
H   22.051842   51.366596   23.958561
H   28.380753   74.320824   15.561466
H    7.801077    9.854126   73.639206
H   58.082680    5.455097   61.124115
H   53.716404   61.803047   96.048126
H   68.911674    9.737170   25.793161
H   33.044163   30.942226   94.623222
H   34.094269   89.443520   19.638390
H   66.398216   26.487823    2.390653
H   94.381264   58.623802   75.574722
H   13.600505   42.003876   87.382545
H   55.204071   92.791565   14.443130
H   57.512077   96.240059   49.495861
H   86.780403   64.227882   74.372162
H   62.070065   54.547077   74.357498
H   80.542397    8.361210   74.409798
H   42.037434    3.544846   15.899363
H   19.315937   33.820568   73.499268
H   23.136684   90.869041   47.118118
H   61.387157   23.659285   19.575579
H   77.000504   12.064301   20.181540
H   14.014550    4.238028   26.587202
H    9.001605   83.792099   27.648304
H    2.778701   13.528580   47.381462
H    0.863212   11.785068   88.232002
