200
TIME:    0.754, STEP:   754
H   25.265234   60.769138   24.128658
H   32.545471   40.381973   10.763867
H    7.364706   91.635849   70.665459
H   35.168533   82.981514   31.058723
H    9.752873   96.756500   46.268417
H   72.897278   38.864227   50.335739
H   10.806167   54.939430   59.600231
H   14.407079   11.081168    6.827742
H    8.302183   79.800461   35.180393
H   92.767441   67.698982   75.798256
H   30.109194    5.574126    9.204552
H   32.903259   55.742241   37.233353
H   23.789669    4.066854   40.225334
H   80.109581   55.375530   67.034050
H   94.806046   75.901390   41.713905
H   14.318319    4.788258   43.234940
H    8.386773   31.791660   90.476173
H   24.357098    7.876930   34.369526
H   82.127121   11.093506   50.050385
H   91.691521   72.645958   17.545536
H   64.253609    2.416615    2.292090
H   78.586067   68.461128   50.767151
H   79.613289   58.804260   36.803062
H   19.495319   92.745384   89.974342
H   25.587524   33.376282   27.069454
H   18.235609   85.147552   89.980339
H    8.849694   69.110329   69.748215
H    6.306736   91.333031    2.083753
H   32.717281   40.906441   35.328606
H   69.822327   34.533924   80.845779
H   12.690424   72.923439   16.823235
H   22.579136   75.553207    6.258161
H   14.703880   20.045485   79.457489
H   79.415047   64.138695   47.274475
H   23.321802   68.562119   30.308920
H   16.271317   38.202522   85.370506
H    1.017142   63.335052   89.813698
H    7.490590   58.051189   92.057327
H   34.047012   27.995228   55.856949
H   85.153412   37.574795   43.618256
H   80.657249   81.212585   18.585129
H   38.923233   32.328621   24.589718
H   67.447098   75.974266   69.414268
H   36.136185   88.198219   37.131115
H   46.339302   91.977264   62.912651
H   33.826569    0.461714   48.277988
H   89.660278    1.029989    7.448282
H   77.602287   65.542763   29.169510
H    6.958581    9.246748   61.536915
H   43.723560   20.121077   83.967331
H   65.980972   63.990334    7.498654
H    1.489758   44.544903   74.592537
H   66.040245   79.722755   14.645336
H   14.756630   93.030594   89.314812
H   55.442368   64.953735   74.150078
H   98.716728   59.686836   95.479340
H    3.963598   18.690529   44.140949
H   73.024277   70.528229   96.025841
H   17.335249   84.406723   19.558018
H   31.215237   93.102943   57.492416
H   48.754837    5.348127   27.218773
H   99.174614   17.642511   53.006645
H   85.607880   35.853989   67.544006
H   36.580132   65.885658   15.143707
H   79.610992   83.741699   38.948231
H   18.576609   36.530205   42.102371
H   66.975441   12.319829   96.454567
H   94.463036   92.618538   97.447868
H   34.805389   12.799220   55.474022
H   42.278187   50.588673   50.955143
H   58.239677   85.482193   87.030151
H   17.694641   10.311461   41.166843
H   93.807266   34.549236   82.284256
H   24.610949   97.666664   75.536659
H   85.403763    9.192042   43.444458
H   66.305717    0.930133   59.518700
H   93.255066   49.085197   64.875099
H    7.517509   15.329599   30.391335
H   15.439184   52.592247   23.551096
H   60.530231   87.800323   69.885529
H   65.183449   21.414927   93.502625
H   49.237843   59.346264   71.967278
H    8.994351   19.304449   75.240730
H    7.912559   78.667183   10.603812
H   20.604576    4.759193   43.215752
H   39.147881   67.790283   17.082985
H   58.892120    3.855171    2.949725
H   71.057045   99.413879   30.829147
H   81.418472   73.308258   79.021851
H   20.869659    9.086597   49.210690
H   19.696651   39.329983   78.468246
H   80.475090   93.045197    9.583195
H   71.677582   11.065128   81.090836
H   36.979198   75.967262   83.218178
H   38.148750   49.973366   89.347298
H   47.986122   39.201279    4.894572
H   86.278038   96.500542   20.465858
H   92.765022   36.425301   53.460163
H   25.371025   64.629089   54.702789
H   76.141548    6.279266   27.375895
H   32.799099   94.637939   93.143349
H    9.685000   84.432922   63.029350
H   33.834137   18.385214   37.685291
H   46.573967   68.888489   10.574347
H   24.657377   20.717934   41.751987
H    7.772274    1.607579   19.825933
H   90.006950   36.479038   53.867111
H   61.722317   54.009369   98.866158
H   85.859108   33.601517   23.987110
H   20.878244   20.893831    8.052912
H   53.957184   91.600182    1.157487
H    6.632410   76.270691   96.365974
H   48.166725   86.239273   82.755150
H   61.483025    8.316143   61.699623
H   46.697578    3.372068    8.750188
H   93.062035   90.761513    2.122329
H   11.441823   15.680345   90.172165
H   38.163311   52.296093   23.704155
H   38.382309   77.011353   58.136578
H   84.347130   56.933529   68.517441
H   45.919197   25.175068   70.676949
H   96.111435   15.303745   63.307541
H   44.628365    0.144125   39.277424
H   96.504562   48.822678   95.356255
H   61.536217   96.225990   75.813393
H   66.553429   76.415192   15.607007
H   82.610359   51.589890   51.204086
H   64.185707   91.601280   39.343685
H   98.793114   33.878071   73.176720
H   92.658539   21.713108   75.258339
H   69.357658   66.833038   23.054180
H   61.970894   91.149338   21.448368
H   90.759346    7.601897    1.199019
H   75.717026   26.181370   56.033077
H   29.818043   92.076172   32.797638
H   48.668091    0.967179   76.109169
H   69.743683   87.874306   80.926506
H   95.602592   48.172176   75.076927
H   59.748322   51.521759   71.428520
H   43.726372   84.438774   81.175354
H   76.064331   47.953209   31.513580
H   33.575912   56.628235   58.229061
H   38.482224   66.221169   82.047256
H   34.160500    7.921736   86.641945
H   64.462357   52.720276   65.876129
H   64.773262   70.830948    5.228869
H   56.887932   94.526848   43.601559
H   28.617363   54.285652   65.875999
H   78.926239   43.331894   92.834732
H   25.846828   94.286476   70.761932
H   58.103493   70.039230   47.463863
H   55.424294   92.886971   32.044731
H    0.053818   12.619274   85.421387
H   23.497158   12.940952   63.250637
H   33.994579   67.453842   70.051796
H   78.760689   44.803394   69.875168
H   64.691574   76.298645   86.841965
H   53.353798   28.412964   21.766106
H   88.856850   99.797562   83.542656
H   57.917019   35.971588   97.966263
H   59.004890   63.527351   69.749428
H   19.470633   20.392616   31.091103
H   87.344505   12.159615   37.018330
H   30.141916   35.279430   49.208290
H   54.032692   39.529274   14.874958
H   20.769444   48.084644   59.492062
H   66.048988   89.253365   57.670635
H   24.081226   54.318481   69.267288
H    1.057383   26.498667   35.643227
H   49.929459    6.580852   84.615204
H   69.545532   11.746470   35.932938
H   28.406149   46.355392   59.036522
H   47.604164   55.367535   75.961502
H   64.896622   62.244003   86.164581
H   47.548035   91.169937   75.063164
H   16.775932   50.438354   23.783089
H   30.137432   68.978378    8.408852
H    6.285509    9.691048   71.452652
H   62.456440    9.430457   63.123455
H   61.850098   59.968742   93.635872
H   72.033646    3.608958   29.768684
H   29.595156   30.733486   88.380585
H   41.968342   89.624863   16.250275
H   62.674583   26.171452   96.099800
H   92.169922   66.040604   76.279221
H   10.020773   40.560959   86.526711
H   49.249756   95.720451   10.654169
H   65.727310   88.996773   43.512192
H   91.732765   63.465527   72.417831
H   58.960487   55.477276   72.197037
H   72.374130   14.018723   75.630928
H   43.439255   98.897614   18.077429
H   15.517537   29.752270   69.581474
H   26.123953   84.044540   43.671947
H   67.255661   31.296894   20.134937
H   76.583023   11.644701   22.524323
H   12.877894   99.574883   20.815535
H   13.971416   87.190651   32.470856
H    5.059003   13.050108   55.029182
H    2.646758   17.578468   90.607727
