100
TIME:    9.826, STEP:  9826
H   52.829498   20.930767   90.150040
H   29.105518   37.321003   97.665154
H   48.670765   80.825951    7.997303
H   83.125870   27.820040    1.565230
H    7.149881   60.354218   99.283546
H   75.647705   90.562859   51.847992
H   37.989407   24.836565   58.859173
H   47.582077   38.675510    6.002382
H   12.086037   41.562180   81.576225
H    6.373899   57.471806   92.448372
H   86.264374   61.611511   93.256889
H   80.810616   16.216854   93.504066
H   17.178391   67.232933   48.626625
H   68.556808   74.789406    5.002163
H   99.952583   92.326080   78.366966
H    6.440055   52.311081   17.396851
H   33.958626   31.884262   67.887894
H   11.190429   16.705528   58.907448
H   98.312592   90.565277   81.041092
H   27.786366   97.147186   85.332390
H   81.187454   78.009102   90.547852
H    4.408539   57.128143   82.503632
H   54.550941   14.715811   51.217545
H    6.080414   54.375702   77.310715
H   78.150620    6.908829    9.102707
H    1.274089   36.433029   66.212410
H   14.771637   34.021305   94.926804
H    3.452835   15.084172   91.566978
H   24.828182   40.583317   92.692337
H   77.765770   47.646103   64.527382
H    2.769449    3.172719   31.977249
H   86.177048   81.028870   89.622063
H   62.489014   49.565216   83.000633
H   93.273483   73.228447   57.797432
H   36.413887   15.703865   22.874556
H   26.794405   55.049572   88.535713
H   22.240585   44.686287   82.715775
H   57.863400   79.135445   15.835166
H   30.313175   67.325157   92.100380
H   37.694164   92.305267   11.123479
H   63.713913   93.337433   73.840782
H   72.131920   80.139664   81.587151
H   95.849701   22.432972   11.215475
H   51.928890   77.578285   41.466946
H    4.304194   44.191624   96.940094
H   51.294586   50.326733   23.080564
H   18.513714   59.213680   19.791639
H   56.787350   96.574615   76.554382
H   52.251877   18.661381   52.512146
H   32.030579   80.299614   96.498634
H   45.994770   21.244644   52.143417
H   82.672409   51.959747   29.020403
H   12.683611   78.983215   32.193268
H   49.141251   46.885567   65.410469
H   58.434242   19.708231   83.911011
H    5.834030    2.197725   58.126556
H   19.178246    6.021173   90.521736
H   94.392044   48.942818   60.460106
H   65.236702   53.955780   57.143932
H   10.604996   83.047272   84.135780
H   79.535889   21.617064   48.290569
H   50.173973   36.483047   50.761093
H   41.167202   36.805931   59.686722
H   17.773533   95.289368   60.366730
H   22.333008   76.057045   10.620938
H   97.723480   53.793999   27.174662
H   99.209572   88.072388   41.461987
H    1.616593   79.496590   35.942230
H   46.629448   43.752640   43.963810
H   29.585922   42.178173   81.002838
H   10.003706   26.835163   44.287300
H   64.118752   25.339256   76.286835
H   66.318848   32.276188    9.809002
H   13.903072   27.533096   19.325987
H   35.798347   42.783512   46.315464
H   57.953270   37.327145   34.764381
H   59.193306   75.335495   65.011864
H   93.615379    8.231529   57.104614
H   32.705742   24.656658   27.316202
H   17.649395   73.750313   74.402596
H    3.175712   30.936838   67.270073
H   78.630424    8.201806   64.959511
H   39.389549   71.443764   65.722534
H   26.162567   52.991531   65.963158
H   73.887375   34.244583   95.233887
H   25.144878   69.981194   24.130634
H   23.411242   88.921593   92.084694
H   14.056875   18.791155   93.702393
H   59.602299   47.075981   47.826790
H   97.588043    5.006409   75.471039
H   26.143728    4.006370   40.969261
H    5.323396   34.488144   20.751207
H   15.318902   22.343328   78.864250
H   93.739357    9.064542   94.218086
H   86.704422   69.577187   41.875862
H    5.508927    7.714662   59.923248
H   82.660851   31.571575   72.085709
H   19.310854   72.649872   81.617516
H   40.624931   79.233238   22.006847
H   49.541237   26.484444   51.170765
