100
TIME:    1.260, STEP:  1260
H   32.113197    6.472938   97.992447
H   66.221046   73.061424   57.480648
H    1.413444   64.553474    8.545403
H   81.688095   80.737633   71.099602
H   83.885345   73.752083   31.540611
H    8.477837   99.843040    3.527227
H   86.933723   46.419529   88.986412
H   20.852783   97.608627   92.504662
H   22.654793   65.149521   20.774195
H   40.406715   34.475090   57.032173
H   83.052902   16.941059   18.380236
H    7.748119   86.848122    3.241314
H   63.112320   85.475517   99.895653
H   92.694115    1.192461   53.127506
H   95.826332   57.476604   90.205124
H   50.862671    1.526919   28.449692
H   22.764835   65.322800   88.075630
H   28.069901   33.427002   55.864548
H   64.884941   31.211977   29.744219
H   58.569580   79.056503    2.119323
H   89.506454   30.780441   23.046059
H   83.164787   45.762993   11.967967
H   68.921211   84.374718   96.299179
H    1.973861   51.793461   13.495258
H   84.519524   86.245674   45.858902
H   40.881550   90.065292   71.072281
H   53.428200   90.100296   24.969534
H   26.226372   15.252208    8.420974
H   38.568558   63.409000   97.612206
H   49.306927   59.654953   83.555229
H   65.666573   35.035095    9.706757
H   45.314274   17.701103   82.619576
H   59.111485   76.294823   11.307706
H   31.339867   58.251228   18.669504
H   49.452553   63.673805    1.454969
H   82.106720   83.463455   16.308851
H    0.649836   58.392433    7.748374
H   11.914042   35.892574   11.356834
H   94.074936   53.610710   21.361580
H   44.515320   94.225960   37.168186
H   49.133453   99.416847   72.029587
H   18.379570   68.408974   61.997028
H   22.093954   71.055786   92.484596
H   98.900398   33.887383    3.930519
H   47.359489   82.177139   63.931831
H   61.831753   86.949348   88.287941
H   49.384510   93.709946   38.389839
H   56.306705    8.356295   46.539577
H    1.863570   28.096130   94.211594
H   52.316021   49.927402   95.539513
H   43.448490   47.998894   66.702103
H   66.366539   46.820728   91.344711
H   35.016663   29.314636   29.690445
H   47.512508   86.647194   87.417435
H   40.451675   68.964096   11.098093
H   95.142776   11.207747   49.733429
H   76.129547   53.190285   75.823891
H   32.236023   57.896324   81.100418
H   89.650764   92.006104   14.752083
H   75.871033   24.635496   27.772179
H   39.182873   19.976448   16.156815
H   54.191284   16.217453   38.344154
H   59.699028   21.231033   47.117287
H   29.560820   48.648575   92.930244
H   82.334282   60.210995   12.902177
H   23.941353   79.634773   20.686384
H   86.476120   91.924591   27.895744
H   93.328819   89.597397   26.437887
H   19.699753   59.250763   81.207771
H   55.909599   11.516933   99.079926
H   82.021187    9.670263   47.035709
H   70.073502    9.708447   48.873444
H   24.837700   55.980129   29.440327
H    2.458492   69.645508   28.323051
H   22.921944   30.436529   96.913994
H   55.448437   88.326927   11.148091
H   81.355125   17.338335   13.329288
H   91.177414   68.333687   84.025223
H   21.947329   49.811375   31.737907
H   37.732834   40.331955   12.370992
H   35.539181   42.316936   55.295681
H   35.861874   52.456314   81.416824
H   97.521690   28.286860   49.908604
H   36.846851   19.981424   48.342934
H   90.977448   70.071472   25.609474
H   22.291546   55.338207   29.281624
H   51.307274   11.740669   83.624695
H   76.238678    4.416056   82.644844
H   81.830757   24.017202   17.891121
H   54.937332   57.437241   69.257759
H   75.586922   41.467861   60.070629
H   71.514198   90.270439   57.528954
H   66.127983   65.382675   16.391825
H   69.012337   89.661034   11.774400
H   34.808506   36.866707   45.039421
H   97.992386   45.974602    2.368141
H   62.589432   39.989147   64.725342
H   11.491439   26.965820   35.876526
H   48.688469   42.281658   39.506573
H   17.491684   46.339596   76.329781
