100
TIME:    4.845, STEP:  4845
H   89.675209   77.710182   94.710281
H   66.668190   67.408707   83.598816
H   63.035812   22.472473   66.474297
H   82.289825   33.037224   74.593025
H   51.774826   61.105621   34.335876
H   52.891880   95.959145   58.563511
H   99.044609   88.494995   69.338318
H   39.078850    7.756629   63.343136
H   34.528587   20.466522   95.110970
H   42.438545   85.950386   97.413116
H   49.584930   61.191624   73.053925
H   70.922249   66.545479   48.056358
H   34.897568   68.603477   43.598389
H   15.185538   90.142220   25.946604
H   39.433983   37.252167   17.877110
H    6.716488   87.967545   30.864143
H   34.501137    2.430784   14.447813
H    4.675069   59.075123   31.572752
H   20.730915   81.607285   18.616144
H   61.981674    2.926985   46.202736
H   76.767555   73.882782   25.742985
H   26.875214   50.515793    6.681747
H   21.056297   55.218147   93.728302
H   68.888489   94.788544   47.241592
H   56.298859    1.925941   72.321266
H   24.460077   83.426559   34.816479
H   44.289307   41.076374   96.098122
H   23.735081   82.587936   26.921694
H   16.521309   88.668510   28.145828
H   86.772522   70.925865   68.552223
H    6.735521   56.515347   26.057961
H   71.673500   18.650993   50.738121
H   11.632145   13.999178   34.272820
H   82.813980   29.707306   67.639046
H   60.337830   92.675125   19.755379
H   93.805542   64.909859    4.194901
H   44.497368   27.102013   90.232468
H   63.737072   70.289391   64.338341
H   40.564152   75.853325   74.795883
H    6.848955   58.611382   19.228476
H    4.130744   22.427664   56.491802
H   96.179466   29.303583   30.421717
H   52.973660   92.553970   51.432671
H   69.972961   93.966003   54.454041
H   36.387966   40.731949   70.710228
H   15.580507   55.327778    2.843296
H   79.586227   88.324974   71.974098
H   56.498165   45.271896   68.359077
H    6.656473   31.186771   51.206230
H   27.491856    4.475348   44.797974
H   43.174976    1.889621    4.500899
H   40.589806   14.159216   55.997818
H    9.371226   50.101685   21.478540
H   64.489372   28.153183   45.612328
H   55.029022   83.194832   41.556637
H   99.628403    7.437253   27.691574
H    3.404751   49.746376   16.787407
H   65.286758   19.337172   88.758530
H   72.390816   43.482590   39.529785
H   39.298435    0.189910   25.807259
H   65.326996   53.255939   36.641357
H   26.956652   82.845505   76.134262
H    2.986932   76.668869    1.234259
H   75.737770   68.155930   95.596054
H   24.628073   73.882690   46.763065
H    3.709962    1.413850   32.657539
H   98.844604   15.867370    0.978079
H   45.688545   94.627396   97.821617
H   98.375046    1.655532   56.363846
H   28.546354   91.831543   91.530945
H   68.181862   65.746201    4.027542
H   74.474091   90.728683   11.349578
H   91.087875   78.652290   37.523117
H   23.551441   42.778545   15.280140
H   95.768806   35.547047   68.681854
H   40.197693   18.091368   69.921402
H    6.849172    6.613541   76.734886
H   59.607235   33.917469   82.011284
H   93.849083   39.287434   71.741280
H   61.917236   45.084972    3.520211
H    5.681130   79.405411   69.563255
H    4.850816   75.869095   81.641380
H   24.331469   88.144836   91.356857
H   83.477829   26.756403   20.901413
H   16.417723   45.827942   78.084038
H   39.784695   87.019554   78.234650
H   90.741310   51.081955   54.571854
H   33.942505   17.392260   45.357407
H   56.231308   24.410166   88.564949
H   37.975491    9.937927   97.415390
H   22.300072   35.048054   35.779339
H   36.779835   59.869507   25.845457
H   96.027519   72.895378   93.675827
H   15.514972    7.117289   53.491230
H   72.823631   15.743591   27.418549
H   94.098694    4.408389   17.198647
H   78.029167   45.725185   58.548615
H   24.649794   57.489960   78.504692
H   77.908539   57.735188   39.217781
H   40.152142   54.301205   31.005941
