100
TIME:    1.466, STEP:  1466
H   18.182825   87.581711   97.803848
H   60.490791   84.229607   70.475090
H    4.953929   79.374184    6.126473
H   81.722672   72.250694   59.808247
H   82.040222   90.263893   25.954948
H    5.283280   99.619865   23.928339
H   76.136452   60.330250    5.095934
H    4.661591   15.430113   73.591362
H   17.590919   45.343521    7.807004
H   34.777046   37.432945   65.099266
H   63.891281   25.229969   98.537262
H   99.885193   97.173897   88.577919
H   50.009430   73.012291   79.420128
H   82.494072    0.557364   68.804283
H   98.331551   39.077236   80.303696
H   42.580048   83.509331   11.350190
H    6.203300   78.945908    6.831604
H   32.472107   23.409271   48.722946
H   68.094261   39.854507   40.596500
H   53.020065   74.681015   16.144693
H   77.282120   10.271912   17.454895
H    2.917407   46.034889   94.427406
H   66.170815   82.699333   90.405472
H   82.834221   54.264103   98.195648
H   77.151604   69.906746   47.378693
H   39.936985   83.926407   51.763924
H   35.663780   81.537918   29.057409
H    8.845436   24.867626   15.230170
H   43.047775   82.099121   87.874229
H   57.206066   54.556503   99.931877
H   73.770027   53.508331   93.405945
H   58.321293   12.009864   63.549110
H   73.621536   61.222649   29.865812
H   40.043694   39.372505    9.991337
H   44.332100   48.101845   13.998352
H    0.017303   99.645218   15.599832
H   20.407825   50.848488   23.980230
H    3.399992   32.122173   25.893200
H   84.814743   49.213219    1.617110
H   25.112955   74.941750   53.376667
H   35.056137    6.485263   76.882858
H   99.865448   77.653450   71.675278
H   23.868353   72.291107    7.364542
H   85.745644   37.340309   24.072065
H   29.491230   74.048538   81.559525
H   59.174084   90.878487   89.124062
H   51.559681    4.822142   40.150093
H   56.317707   10.477243   59.285702
H    7.884744   11.035812   85.994980
H   56.636501   53.062855   81.130577
H   43.432774   28.111013   68.874130
H   76.377983   27.704863   77.822189
H   39.289993   30.509094   17.726219
H   42.742535   83.286995   96.507889
H   24.051453   87.022415   12.846167
H   95.400528   10.991251   42.720703
H   89.190002   47.246284   95.416145
H   16.895893   38.442375   75.794510
H    5.897995    0.709967   98.937347
H   62.276417   40.469921   21.913048
H   52.177319   10.396979    0.095685
H   46.879944   14.299685   29.022667
H   73.671524    7.182804   32.984962
H   43.707153   49.769165   87.338295
H   90.510033   43.757336   32.086590
H   11.286531   69.393867   32.866711
H   69.948593   99.047333   37.841503
H   79.099052    1.378603   36.285877
H   29.967377   44.448914   68.288765
H   60.082344   21.878241   98.646149
H   75.479958   95.653694   44.565067
H   53.088062    2.871353   63.956619
H   11.405548   45.791088   24.157993
H   97.925163   56.609306   16.079857
H   32.853951   30.729643   12.530495
H   60.318996    1.528939   97.286949
H    0.057823   99.483627   16.974241
H    0.855671   54.863533   95.400864
H   31.822039   49.207859   34.035576
H   27.630234   29.112112   94.624062
H   39.570477   44.448101   67.608025
H   51.319103   53.801651   64.191483
H   10.556247   31.724855   69.529144
H   51.018467   37.609112   29.527077
H   80.947144   57.186211    5.640226
H   17.549862   62.905727   43.586830
H   65.065544   96.762772   93.447540
H   79.554871   87.923218   80.504250
H   86.105659   12.547929   16.205521
H   36.724236   48.961304   76.622536
H   84.017281   52.590466   64.420975
H   86.756111    5.763532   61.453377
H   79.345604   71.556137   32.329178
H   88.922066    2.155849   25.663902
H   31.246967   18.413902   49.773247
H   15.007217   37.839714   91.727966
H   46.237930   51.811138   52.878204
H   12.247798   28.719788   32.580765
H   38.875053   43.169643   22.251369
H   30.284958   41.047832   56.489204
