100
TIME:    8.264, STEP:  8264
H   58.461418   64.172935   91.580093
H   72.245071   52.679241   99.176224
H   21.821505   68.449234   26.333084
H   82.863693   92.172844   87.184761
H   21.146532   35.153294   41.633575
H   99.863281   92.255089   97.157356
H   19.854313   19.362291   36.708729
H   70.352188    3.543659   49.421326
H   50.482979   91.742676   79.898331
H   49.040749   35.043797   31.289673
H   31.557877   98.762772   43.719048
H   40.428101   37.922070    4.688928
H   16.782021   61.776024    3.853851
H   45.897026   79.603920   86.133995
H   80.980537   31.851608   53.484123
H   69.245636   88.929222   47.056915
H   59.565315   28.570271   25.692877
H   77.785263   92.712883   13.055716
H   73.977844   25.037899   98.742737
H   69.867355   30.318968   78.984169
H   73.879250   33.510113   32.945278
H   54.658070   55.054565   15.522308
H   75.405891   27.413797   95.906723
H   51.213638   35.689667   93.317154
H   34.015450   30.783775   97.571449
H    8.641964   82.480759   13.202801
H   49.465431   98.951248   63.942287
H   35.249542   42.175282   39.936485
H   90.863274   98.867050   66.528343
H   17.871758   86.305222   40.352509
H   41.296177   63.103569   55.557701
H   87.551384   24.186810   34.224174
H   52.462635   63.848763   42.283340
H   27.276077   16.376289   23.601744
H   75.287514   33.969231   27.840498
H   91.013382   32.701599   93.445564
H   72.423485    1.888614   59.636196
H   22.426414    7.715200    5.609738
H   96.244743    1.360209   43.469078
H   84.816818   38.535309   88.229004
H   70.465744   39.739647   37.040737
H    3.768941   74.010437    1.853070
H   82.407196   13.061096   98.391457
H   51.658833   51.354889   88.745392
H   39.814957    5.839107   63.284050
H   71.450829   20.536240   16.734701
H    6.301004   74.262398    4.791949
H   56.692013   80.486511   79.907051
H    6.597366   48.025040   14.819099
H   99.244873   56.516804    5.713030
H   42.934147   71.807564   40.542358
H    6.758744   96.900696   31.556889
H   80.289467   69.926208   22.911917
H   85.316711   72.372360   96.484634
H   82.802681   82.822540   70.635345
H    3.888561    3.840797   11.300735
H   20.154160   51.092293   41.962685
H   10.701564   96.454079    0.692343
H   42.039059   87.951775   77.059387
H   13.680825   62.987888   28.562767
H   80.999863   94.257690   70.068642
H    5.612434   51.021927   21.434265
H   35.103321   43.362823   66.783173
H   10.513443   86.780548    2.769518
H   60.337296    0.811507   65.159286
H   93.678474   31.445305   34.816532
H   24.532541   34.070629   66.048080
H    9.514797   90.163872   61.269592
H   68.780212   55.987999   41.929565
H   97.862282   63.721737   84.315796
H   59.612370   33.118439   63.021004
H   92.747284   77.202538   61.792759
H   68.162857    9.540979   49.862423
H   48.283947   26.391647   12.135004
H   60.556213   40.483509   27.883566
H   21.022135   37.217628   39.866943
H   17.330269   10.529655   37.305008
H   20.235941   10.361202   70.832458
H   57.800430   29.244747    9.882509
H   94.251488   58.840324    8.970226
H   72.596687   14.777230   73.910919
H   61.419128   98.063797   95.638130
H   40.590919   45.321445   16.964306
H   18.699772   19.327536    8.629129
H   49.942398   31.957851   46.650841
H   61.098812   12.603545   15.660636
H   19.088732    2.492071   17.602730
H   88.936882   43.780846    9.893173
H   27.186863   34.045403   60.601936
H   35.690060   69.274429   19.635592
H   62.219624   19.663754    7.982687
H   89.751213   17.011288   90.990257
H   15.191679   75.479607   58.072388
H   45.949104   14.540151   84.027641
H   13.711212    9.490211    5.985003
H   76.494095   69.395691   40.602699
H    6.645182   41.932610   61.918510
H   22.325884   95.362999   12.980890
H   15.034944   72.488152   52.841549
H   52.519093   66.563278    1.642154
