100
TIME:    6.510, STEP:  6510
H   77.077713   25.022196   93.185928
H   20.685104   57.632687   88.581825
H   91.667816   42.259041   46.926075
H   82.569290   64.438385   83.327881
H   36.861572   94.562637   89.193054
H   27.066799   94.155327   23.453030
H   11.781682    0.923006   99.543556
H    8.213135   51.798931   10.466664
H   93.599648   60.383438   90.305397
H   96.948158    9.858133   62.610569
H   94.710693   28.186331   12.673702
H    7.370811   50.003208   29.539677
H   28.650192   67.917931   78.155205
H   32.744057   85.010231   52.654812
H   59.676460   88.527550   37.836468
H   39.771454   42.340675   92.653809
H    0.611530   12.557467   66.019325
H   40.280552   78.062531   73.854042
H   46.660381   51.457237    6.335254
H   17.127586   67.562538   59.563683
H   77.964096    8.125660   80.549553
H   86.500381   52.726105   64.891647
H   98.824318   41.676811   46.092270
H   14.184742   14.706758   23.583910
H   96.750069   69.885208   84.617714
H   16.870070   34.207672   78.245583
H    0.713910   71.865555   29.135817
H   83.246689   60.304497   81.959396
H   52.724693   39.729839   49.440521
H   50.615070   29.717522    0.915385
H   72.266396    5.820345   94.328529
H   76.802673   72.645264   96.600777
H   28.912388   92.180168   84.269165
H   53.165047   77.120102   97.496155
H   18.940399   66.771706   21.124308
H   38.540493   95.319527   98.958931
H    4.193101   66.125122   21.427710
H   94.923073   39.817654   81.833961
H   70.284729   39.573723   13.445044
H   50.023777    2.738415   50.228260
H   90.339645   79.556252   95.718483
H   51.586670   67.132111   12.307424
H   67.312347    2.539416   71.697411
H   63.656643   21.912863   17.249281
H   91.961540   75.039474   13.188437
H   94.093102   87.085129    9.608809
H   92.594040   78.873672   87.954399
H   56.587086   62.420868   71.379837
H   55.321487   93.292274   84.787796
H   62.418301   29.819250   28.352350
H   43.054585   41.145325   22.052094
H   21.509731   59.660851   46.695290
H   43.909916   59.755920   24.777632
H   25.935783    0.983346   19.084507
H   22.459221   29.109936   55.720417
H    1.703956    5.685835   71.011032
H    8.958468    1.702943   75.142586
H   41.307281   62.098396   45.873398
H    3.707551   13.833529   11.710457
H   29.426071   28.168316   78.450706
H   70.356377   75.825577    6.825859
H   67.865303   67.347916    0.795676
H   16.023928   63.052406   87.060211
H   90.069687   77.225830   50.395161
H   90.715637   40.901402    1.816562
H    1.427958   18.641533   31.105848
H   65.259018   73.428253   81.364639
H   30.675667   89.850685   77.418243
H   81.359962   82.019257   51.937801
H   62.273315   75.577080   88.024933
H   15.310253   52.460922   84.057442
H   37.187923   35.470886   33.253242
H   82.526749   96.296295   94.830139
H   86.898827   37.401485   16.351492
H   76.043327   37.922497   94.899796
H   79.559090   24.802303   57.887962
H   58.029873   62.344723    6.197407
H   37.831966   25.046938   73.963570
H   73.690117   34.396801   90.312981
H   80.268723   54.389320   60.078850
H   38.263283   96.630600   69.076538
H   29.802477   86.689133   42.377743
H   29.647095   15.988196   49.923477
H   98.027641   69.233910   68.828362
H   35.346764   41.681366   16.680756
H    1.460190   48.178200   93.857239
H    1.942908   30.022758   33.965370
H   60.727715   84.137329   28.079254
H   90.783310   31.705275   74.947395
H   90.767105   41.437634   56.931992
H   90.438652   24.953514   70.941086
H   59.972973   85.093796   57.564705
H    2.757125   22.851284   22.432871
H   76.432930    8.127164   65.758301
H   44.038765   66.604416   65.679047
H   31.620926   38.658234   31.199142
H   45.868919   41.275116   62.793304
H   25.711519    8.574365   48.192436
H   98.591850   64.913963   99.755516
H   43.571682   11.578175   70.612236
