100
TIME:    5.775, STEP:  5775
H   26.782438   92.425316   93.858841
H   40.983070   17.801870   42.237942
H   79.028275   89.380997   55.556179
H   82.445923   94.719452   23.615086
H   43.444901   35.649139    9.121784
H   38.467060   94.951607   50.664371
H   50.301640   51.294178   42.065601
H   65.982681   88.212967   77.952919
H   11.667412   31.050781   36.571114
H   17.025747   99.303810   33.832340
H   63.078598   98.612427   83.472023
H   35.425659   13.161352   81.858498
H   75.552200   12.364597   51.188652
H   69.137413   87.275703   96.719307
H   50.743950   54.181076   73.174561
H   69.323532    6.626397   53.665741
H   59.715981   63.940639   99.109375
H   24.562437   13.826733   99.334999
H   35.215260   20.621019   67.609970
H   36.928040   83.174110    9.521418
H   21.580025   81.297974    0.501335
H   16.035217   51.750381   27.483658
H    8.638406   47.654518   67.120789
H   82.477516    5.914034   78.172058
H   23.036877   28.173370   79.189552
H   20.220613   55.937141   47.362297
H   64.095291    2.416085   14.550575
H   45.263790   25.997169   57.665787
H   36.743019   73.045227   84.185242
H   22.432201   47.908592   42.484177
H   43.338364   39.910931   52.479317
H   30.394138   92.956009   64.643379
H   77.140984   45.955528   18.054564
H   22.109238   44.478386   28.458918
H   37.221222   22.374041   76.384811
H   74.648575   37.751854    1.269901
H   33.696907   93.041626   63.512737
H   25.301632   53.270298   29.967297
H    1.306196   55.589043   84.672112
H   19.253332   71.547798   92.399315
H   40.570892   54.335396   78.402199
H   13.528565   64.249802   74.782372
H   60.984295   98.130905   18.608692
H   10.591211    9.576132   45.384590
H   55.716511    4.041383   50.292950
H    3.579941   73.066116    6.622759
H   86.851852   38.902664   80.900032
H   56.547832   54.850601   25.902166
H   33.838753   54.163506   14.106336
H   46.996937   18.630545   79.752731
H   43.105053   12.104376   14.304881
H   85.787102   27.862267   94.943123
H   28.662838   55.494141   67.467400
H   42.954865   12.976611   86.651756
H   80.980644   64.699371   49.467937
H    0.788495    6.458983   96.032166
H   62.360283   22.911812    5.237967
H   96.037506   31.510530   64.804672
H   45.738174   82.776741   68.134285
H   77.927856   71.674591   99.355858
H   23.992210   10.008303   64.130211
H   93.951881   74.189194   34.053864
H   66.126472   13.207203   37.461365
H   39.598534   73.222000   70.350845
H   61.544403   99.604019   33.370060
H   46.578514   55.180687   87.646400
H   24.229671   48.018116   45.879715
H   81.446922   47.816074   42.280994
H   44.728138   34.831657   98.033783
H   47.385124   38.607895   89.572632
H   38.651070    2.469606   92.872597
H   97.792435   59.863968   79.440842
H   30.451035   32.650963   13.675690
H    3.081374   83.918968   60.022514
H   40.606968   36.873875   39.182632
H   62.186142   77.696831    7.345797
H   91.287437   26.007120   93.181877
H    3.300333   73.108253   33.371490
H   38.444775   36.555729   82.114662
H   16.313633   94.427620   23.399639
H   23.879778   89.026688   25.147001
H   74.641022   81.922531    3.861846
H   83.156593    3.697492   79.925659
H   47.460091    6.338083   35.959866
H   71.134499   87.655235   87.930984
H   18.378063   21.178707   42.816818
H   52.853920   83.463234   98.917709
H   48.906883   42.952457   35.699989
H   75.530624   72.629555   80.958748
H   55.751789   71.678024   30.660219
H   60.359459   85.264755   55.419231
H    5.590417   29.814138   43.562515
H   55.642075    0.796616   65.594193
H    5.399552   63.535717   16.198290
H   56.745598   32.440388   48.788944
H   70.912903   67.683197   69.162628
H    4.210335   99.096306    5.063601
H   27.130243   72.204224   62.946045
H   33.605255   61.744053   61.321373
H   97.919449   30.439354   41.416882
