100
TIME:    3.388, STEP:  3388
H   88.205963   11.324430   96.044205
H    7.026372   88.436722   91.714066
H   37.991402   17.650257   83.570747
H   82.045273   93.063774   54.456371
H   64.825043   44.320644   73.842239
H   75.485115   97.537621   14.270710
H   75.404289   90.111259   55.398949
H   53.596176   81.706802   97.118462
H   70.344429   60.551010   86.824501
H   82.256157   65.030022   40.361053
H   85.111526    2.566218   13.400518
H   26.529892   93.513779   51.767265
H   27.752071   56.728699   88.389366
H   87.327293   94.633095   15.067867
H   21.711807   67.397507   87.914284
H   65.300323   15.402361   51.807961
H   51.664375    6.061439   81.811356
H   73.541710   29.942360   82.087585
H   98.037529   20.483454   41.854649
H    1.242554   33.868114   47.003410
H   63.227997   18.930962   65.283936
H   87.191208   48.581604   30.758759
H   40.509346   67.067833   35.416611
H    4.259605   77.315430   55.452099
H    8.410308   17.473595   61.560951
H   31.123373   26.658888   71.613106
H   69.928665    1.640901   67.196449
H   46.671940   14.580078   78.761772
H   84.839310   56.477737   97.020424
H   30.903477    6.986777   52.724670
H   49.395275   25.864321   41.331169
H   79.677650   58.902130   85.619942
H    9.003136   20.599968    3.014752
H   21.252449   63.232765   29.019268
H   96.553848    2.813205   31.033836
H   67.129265   50.630810    8.992169
H    4.752673   80.459457   75.426506
H   23.959961   96.945625   61.521946
H    2.062560    7.599367   15.989904
H   44.081524   95.009720    4.594625
H    3.706458   72.432571   22.165510
H   27.127037   63.915665   61.972244
H   40.423664   83.816772   46.192059
H   63.012299   69.553925   11.994979
H   62.770657   98.219543   46.031429
H   34.377773   27.537708   96.925148
H   68.203415    9.088323   57.985359
H   56.420353   30.265902   78.208183
H   64.061386   51.854630    9.324565
H   96.935020   82.307747   46.702602
H   43.286137   42.554260   89.139359
H   69.783218   49.358536   51.646961
H   79.155006   41.653503    6.099068
H   98.237633   51.930367   81.319977
H   71.035599   55.500191   29.163538
H   97.805374    8.970755   77.291290
H   11.037091   91.787193   78.214394
H   73.778801   56.932922   26.289024
H   57.480133   81.919693   51.385212
H   35.445580   88.200684   67.247810
H   73.418221   21.015099   50.239948
H   78.667870   96.407059   42.058861
H    4.071168   76.091972    1.145140
H   75.688103   60.224380   35.156757
H   66.799950   90.249947   11.078660
H   93.215096   73.845345   46.508804
H   15.742886   65.491943   30.635675
H   46.333504   11.300273   28.168592
H   25.759300    6.346245   47.743877
H   99.027649   18.548811   94.598969
H   14.447638   64.880287   21.507179
H   94.611374   39.084106    4.674796
H   86.087234   50.720791   74.880852
H   55.631313   34.979851    1.851288
H   25.521090   33.468349   58.231480
H    5.749861   24.711294   67.958954
H   74.564003   32.897057   50.967930
H   91.154724   29.187136    1.545257
H   23.980101   43.567104   55.483826
H   33.371529   24.435570   29.041885
H   77.177719   64.332077   82.481857
H   95.529282   66.353775    3.474630
H   32.157604   63.808960   52.590122
H   83.238815    2.077169   53.974655
H   87.361435   36.963406   19.323692
H   73.318665   33.500664   77.056152
H   93.431572   57.017723   85.096161
H   10.492785   34.042755   60.508553
H   25.994610    5.534193    0.481492
H   66.794739   69.885574   45.329666
H   62.673523   56.372684    5.010171
H   28.970667   50.301888   98.082268
H    2.632013   29.173780   81.003685
H   74.691353   18.739483   55.253120
H   98.012550   46.253735   93.940300
H   73.756485   61.942757   92.454155
H   93.679169   62.110958   42.342827
H   19.302984   45.084473    1.825486
H   47.316856   51.454632   61.257370
H   49.651768   91.692635   71.363602
