100
TIME:    4.617, STEP:  4617
H    5.093915   98.618996   94.919022
H   72.965187   55.053505   69.223572
H   59.116714    6.069838   69.149651
H   82.251556   42.430534   87.089607
H   53.817001   42.830414   40.518066
H   56.428288   96.206154   35.983036
H   10.993927   73.100403   51.508419
H   56.999199   88.031250   84.276360
H   40.133263   42.387726    9.462721
H   48.669441   82.676643   88.485992
H   70.792938   52.017490   95.016876
H   79.623238   55.116951   64.285912
H   49.446762   82.390770   66.253662
H   26.474068   90.844978    8.595073
H   36.661217   57.618256   28.836842
H   15.884502    7.909361   49.789978
H   52.835487   87.349518   93.692070
H   99.799614   70.168892   39.477001
H   17.179722   72.043503    6.604858
H   68.125023    7.768888   30.679422
H   90.297401   96.579803   31.931263
H    5.016632   50.213120   26.098053
H   24.100426   57.072456    0.251454
H   90.072144   92.055328   64.175629
H   64.453644   20.008064   70.637428
H   25.499430   90.165390   56.255840
H   63.950897   50.554920   91.575417
H   42.972607   71.945663   19.384432
H   11.563338   67.982353   38.923470
H   78.029785   76.568810   50.426613
H   97.762230   36.070980   44.096596
H   57.277386   24.949730   71.845238
H   95.572121   30.680132   13.732778
H   73.180618   50.602203   77.244576
H   66.005127    9.910360    5.872413
H   73.985657   47.052128    4.912228
H   22.629717   35.452133   72.266891
H   73.161644   74.460716   48.249653
H   50.188816   80.821342   96.891037
H   28.323977   79.955513    1.289859
H   19.712387   14.605123   51.120220
H   16.671253   19.070963   19.711603
H   51.009762   91.186722   34.964806
H   84.532593   90.144775   32.160866
H   56.164364   49.726913   51.199970
H   18.522068   50.979023    1.916463
H   77.804977   75.925804   69.785805
H   56.485989   42.923569   54.251717
H   99.992233   50.069065   60.302086
H   22.709965    1.005041   60.743988
H   43.192371   23.902138    2.097342
H   29.509375   35.316044   70.965424
H    4.641801   48.779663   34.720676
H   69.770500   31.873978   35.551048
H   73.182465   63.211498   39.617092
H   99.343124    7.677087   35.453232
H   88.949799   56.325172   95.102470
H   82.264297   40.869240   94.631088
H   54.408775   33.849228   57.034393
H   54.343388   82.666153   32.292122
H   50.944794   63.858204   54.417328
H   35.048271   84.967697   86.449509
H   87.508659   92.226974   16.868919
H   60.081818   66.913925    1.785702
H   15.578313   92.091797   25.530439
H   17.715565   12.748013   19.176397
H   17.137949    7.985251   89.970444
H   61.437996   81.588089   86.921898
H   87.012619   18.038147   70.663483
H   23.927107   80.364746   92.011047
H   75.421669   81.259079    6.762691
H   93.274628   98.295517   94.656700
H    5.953950   89.931221   43.369583
H   28.570660   57.207714   28.826897
H   84.775154   35.221760   51.398159
H   34.806976    3.478613   85.263809
H   86.148758   26.375153   72.702721
H   48.895382   48.826740   69.420769
H   82.914574   39.957142   69.198128
H   73.098755   57.503277   23.162437
H    1.219535   77.046646   55.936001
H   87.744164   74.380081    0.706354
H    9.909258   84.331848   69.644394
H   67.791000    7.245473   41.724991
H   27.520094   60.090118    0.186149
H   45.032772   78.645592   62.401703
H   75.513710   67.659409   43.699966
H   30.272566   35.645897   47.728348
H   51.499863   37.104530   90.429695
H   58.134579   19.319061   89.264084
H   12.969382   22.736942   30.964396
H   19.909391   42.722267   21.501539
H   81.412224   66.052177   76.044235
H   93.477982   93.287720   38.119251
H   76.765343   36.167084   22.180038
H   75.266846   13.411530   28.975075
H   96.126945   32.640652   71.660980
H   23.813093   55.548676   82.154167
H   88.769989   56.752369   58.315773
H   25.990854   60.151150   52.970592
