200
TIME:    0.204, STEP:   204
H    8.364934   62.594471   14.723999
H   27.643415   32.352608   88.435722
H   18.892246   67.562439   43.575005
H   16.628998   76.552986   45.441086
H   15.592364   82.816833   54.176094
H   90.789734   53.792091   66.615105
H    2.837665   55.329674   48.954556
H    2.081887   87.331818   26.350178
H   85.966469   88.045929   48.597637
H   12.128475   75.403160   97.492439
H   10.938866   93.825142   91.824036
H   30.628937   41.061951   11.026933
H   10.290599   85.813118   62.767143
H    6.105328   53.055050   40.531063
H   21.359976   71.667458   43.067169
H   30.349720   27.449657   55.099602
H   82.513870    6.032460   17.179905
H   37.417053   81.436417   44.161282
H   63.827641   31.005238   41.953880
H   89.941719   80.199059   38.866261
H   57.653038   74.961166   27.489796
H   90.830482   47.438332   71.961990
H   96.083244   62.803207   50.000008
H    7.845909   87.731277   91.698769
H    1.681716   11.256073   46.694927
H   18.690893   60.738728    8.145544
H   98.198677   58.074406   47.634415
H   93.684113   68.644356    0.636547
H    9.552342   57.623970   38.549164
H   94.676224   19.799952   99.871201
H   13.408493   49.945225   16.150799
H   32.580700   62.662582   92.716805
H   27.993141    8.210899   72.739426
H   97.618019   63.538643   37.661057
H   49.716038   91.288559   34.492924
H   34.237206   50.742767   79.063667
H   85.231201   75.206009   85.684669
H   34.695652   43.824085   16.786072
H   54.402618   47.689724   43.631416
H   90.427994   39.836529   65.102631
H   80.493599    6.905483    0.329362
H   11.547441   43.861786   40.898598
H   77.350052   88.608925   48.991520
H   37.361465   61.485619   17.460806
H   27.547018   75.196793   43.064781
H   41.566399   14.775391   42.296352
H   79.295746   27.975899   95.389641
H   90.992256   65.551155   48.941849
H   85.688126   30.118313   61.140377
H   63.405682   17.639044    7.235492
H   79.064621   70.951775   29.295444
H   22.514292   35.078350   62.767517
H   51.205986   95.452477    7.457237
H   22.942383   81.423996   81.170052
H   78.722702   77.185562   91.937630
H    5.767149   73.236931   77.469391
H    5.533223   16.609230   50.040760
H   67.015366   57.742512    5.953196
H   28.940798   73.782028    6.255785
H   43.935917   96.191322   67.659729
H   50.536110   16.078775   43.288307
H   89.289871   16.339602   48.790287
H   70.455521   24.460703   86.099457
H   23.253792   65.100975    2.863734
H   70.769669   75.542389   16.457502
H   40.151855   15.162518   32.216202
H   87.519875   23.921349   85.091347
H   97.543022   91.368080   86.558815
H   15.241982    5.366759   62.435463
H   45.444195   41.002529   50.984516
H   58.480957   75.969482   72.318390
H   33.152195   24.768099   45.016827
H   76.351212   25.040722    0.701193
H    6.692538    9.755982   59.524670
H   78.706680    0.288824   69.305435
H   52.403816   20.347584   63.112717
H   95.579742   28.610003   72.654793
H   27.888638    5.314398   49.198555
H   11.256863   28.089491   35.735790
H   68.818542   90.867722   95.968903
H   41.840176   30.710485    1.667987
H   25.053535   69.237617   88.970146
H   11.140166   13.271411   91.333031
H   25.848024   60.682411   92.678192
H   40.190186   98.943176   58.802414
H   23.652969   87.033905   28.532227
H   34.241737    2.709093    1.688793
H   75.630867   19.884195   10.084348
H   64.586823   71.961128   77.035316
H   23.624443   84.433540   55.261562
H   42.751930   34.582020   80.914612
H   84.306190   88.219604   97.582321
H   45.549534   17.268112   96.755127
H   61.642170   95.727013   68.116173
H   24.212692   57.413170   66.440422
H   70.762917   26.904411   30.754332
H   78.817253   15.524336   96.778778
H    7.884356   27.879299   48.252720
H   37.833641   70.138657   52.753670
H   66.578484   97.342361   27.241617
H    8.260081   79.431030   67.244606
H   89.233620   76.111923   66.063179
H   22.433149   38.485565   29.999737
H   20.146036   67.873016   88.732773
H   25.386461   27.945831   23.920376
H   85.997902   28.535433   45.576210
H   63.952953   29.649775   56.426773
H   64.963234   32.892159   20.133642
H   71.881676   40.544075   97.391808
H    3.210290   28.562326    5.361071
H   46.720894   96.379616    0.770522
H   84.548431   62.439888   90.101097
H   57.719299   79.856903   94.718422
H   63.346123   20.173462   75.882324
H   65.051613   80.469482   28.034920
H   15.507674    6.850489   77.310333
H   34.055073    7.935792   83.760422
H   40.953762   25.224522   34.698112
H   17.495161   56.362019   85.318893
H   69.832588   45.956356   47.999817
H   40.178841   21.520206   88.699486
H   19.842426   28.332844   47.129219
H   31.368475   23.340878   22.961210
H    4.607711   68.614388   19.441673
H   77.993584    9.843431   94.003777
H   46.403439   61.367367   26.226477
H   96.281471   49.021835   72.445084
H   76.216118   87.287621   34.698528
H   92.024696   53.786785   85.710670
H   66.000290   24.319977   65.888298
H   47.155739   86.471100    2.035592
H   83.081810   85.694321    8.478017
H   92.555305   80.843239   97.107361
H    2.685845   12.079933   49.263931
H    2.647654    2.021048   58.071152
H   63.316910    1.673053   84.211967
H   68.833115   86.472786   53.546516
H   90.911278   65.344826   83.767189
H   45.372253   43.830185   71.558601
H   43.428444   10.816535   96.457794
H   48.835400   64.127350   13.747075
H   58.895584   39.917000   45.407673
H   56.162773   56.098377    0.598495
H   59.362679   27.830879   77.527870
H   38.609768   70.961014   47.891361
H   44.621086   61.355415   31.570335
H   43.879814   96.935448   47.539661
H   43.635445   74.758751   69.031517
H   64.222870   66.295212   98.302338
H    8.314218   88.281609   91.344330
H   77.489143   60.698559   51.615971
H   32.271942    8.105803   49.280487
H   74.503357   33.184689    4.728423
H    8.958235    0.316410   76.842140
H   12.185001   52.928310   60.101860
H   62.433403   43.439640   52.953400
H   58.934429   59.804043   80.329514
H   45.534241   37.237503    8.880726
H   14.029444    1.869979    3.939944
H   64.083260   58.412689   76.859543
H   53.602325   85.871941   84.373070
H   45.294353   23.242863   35.855850
H   63.669735   36.139481   37.247021
H    9.953264   19.122089   72.739075
H   59.298882   20.866819    9.470819
H   11.293448   65.584572   62.498615
H   75.519737   98.149239   51.840061
H   23.600765   29.294640   46.524067
H   93.583794   28.287283   36.941940
H   24.830086   10.731385   90.808746
H   80.052734    5.205696   35.979095
H   47.406593   66.784149   57.347565
H   36.977371   79.001114   91.436966
H   71.667076   75.407257   73.410110
H   73.111084   95.307358    0.924071
H   99.795883   47.466393   23.252207
H   35.787571   51.796562   85.402016
H    1.410943    9.166527   64.419876
H   76.522224   22.216448   69.555893
H   88.013023   54.068932   85.877159
H   82.075073   83.899345   42.556320
H   18.501539   30.062099   68.301926
H   67.292435   90.203110    5.357515
H   50.697044   25.153666   75.865883
H   85.057419   89.895813   78.545151
H   98.506767   35.919998   83.774025
H   30.098555    5.141226   98.467545
H   92.150574   65.699654   24.266895
H    7.660912   61.012867   66.131973
H   48.958923   58.469143   65.248184
H   46.100498   32.215401   79.558540
H   47.948036   83.950867   25.082930
H    3.300828   16.667572   56.981552
H   35.732533   62.094208   32.587772
H   86.130020   55.863323   21.934044
H   75.240250   10.295109   30.059589
H    9.221984   84.577782    2.251679
H   29.955732   98.121666   47.981987
H   12.393378   11.511164   79.627113
H    8.383228   36.212360   98.248947
