100
TIME:    8.438, STEP:  8438
H   46.694328   48.216209   91.420792
H   67.439468   62.108578   10.147506
H   24.812395   80.967697   24.290703
H   82.892899   85.004265   77.647896
H   19.587366   49.100163   36.915588
H   97.165771   92.066582   14.389068
H   10.735143   31.112123   50.315754
H   56.676132   18.596575   33.444687
H   46.205727   75.013336   68.946335
H   44.288246   37.542179   38.102547
H   15.372818    5.763911   26.958975
H   33.786545   46.643841   92.303413
H    5.686379   51.244850   86.561813
H   37.281456   79.067604   99.374626
H   83.093941   16.309067   45.116798
H   62.249634   73.710594   32.613556
H   45.573311   40.078495   41.532784
H   81.504959   84.245995    7.024457
H   76.688629   32.337902    7.909516
H   65.178574   26.623831   90.830910
H   63.553841   16.187374   28.222776
H   71.339622   55.285553    0.704657
H   73.082741   25.999331   90.928543
H   35.045837   37.771210   80.395126
H   27.792511   16.984261   98.856483
H    7.821384   77.351242   96.828491
H   34.460533   91.718948   67.393845
H   20.568041   50.297016   45.688606
H   94.646690   14.653530   58.303062
H   24.543182   81.998764   54.185211
H   48.144825   78.707100   41.791374
H   98.537895   19.379879   18.116112
H   64.719498   51.117897   57.958633
H   34.628281    0.430444   16.271872
H   70.957161   20.794975   38.427425
H    6.138818   46.331192   92.898628
H   89.112999   95.516365   73.346764
H   15.234640    4.530825   17.887955
H   88.900932   97.569054   26.607201
H   68.427322   22.245775    1.918427
H   58.573868   45.709480   41.140102
H   89.105133   74.692780   10.736039
H   83.904633   14.104855   10.959501
H   40.548862   54.276749    5.758395
H   24.722122   98.974815   78.173515
H   69.204674   23.854362   17.441603
H    7.661367   83.724922    6.462887
H   56.702633   82.278656   90.673195
H   11.683121   33.614868    7.877857
H    2.897398   59.165195   93.547295
H   42.922199   55.009193   42.376984
H   15.215368   80.755463   20.134289
H   83.897652   70.935120   12.806211
H   81.286377   69.534134    4.162631
H   68.948738   98.070374   72.114197
H    4.105278    3.657766    5.377365
H   31.184479   46.071632   58.511482
H   97.745300   80.022102   96.210594
H   55.762905   95.303551   63.701904
H    2.198819   76.361374   23.613792
H   91.975754   86.165161   56.502178
H   99.436790   49.402359   13.561337
H   46.916874   31.489504   54.851471
H   22.461739   87.728394   98.045547
H   67.243729   86.915009   81.362930
H   82.989326   22.795219   45.104771
H   10.571733   40.085598   74.448593
H   97.495224    0.114928   69.587799
H   77.451538   43.485466   31.016068
H    1.396158   72.462051   83.946747
H   54.085926   21.278938   60.934151
H   78.418091   71.425194   74.547287
H   56.817917    0.934169   45.400646
H   44.454067   15.379250    1.796884
H   68.938141   40.739719   41.076405
H   25.136103   48.370079   28.159372
H   33.133621   95.469482   40.391479
H   28.410112   98.984398   80.443665
H   66.144203   28.733654   11.824331
H   85.718224   49.361870   93.980064
H   76.003090   16.577341   84.310669
H   74.476303   99.192184   81.080605
H   51.597343   48.231358   33.535671
H   30.670635   34.217506   92.736748
H   41.470200   21.073559   29.783527
H   57.093700   18.994865   27.743683
H   30.709795   89.840813   25.899696
H   91.735283   29.856647    8.089081
H   30.798367   24.357725   59.178841
H   20.305998   62.116119   25.855661
H   69.340416   29.058575   11.657248
H    2.625452   30.097263   94.306389
H   26.345432   80.699394   71.528076
H   62.764732   25.096546   95.760216
H   10.702400   93.904465    9.983145
H   90.865768   62.524475   31.615425
H   92.833885   51.918175   51.911705
H   21.990023    3.972906    9.487535
H    6.746249   73.239525   38.266766
H   63.326389   62.098087   84.880844
