100
TIME:    9.532, STEP:  9532
H   72.711823   47.891670   90.419205
H   37.224930   21.388676   79.128654
H   43.617191   59.674065   11.448784
H   83.076523   39.932854   17.680777
H    9.784334   36.788818    7.254789
H   80.205566   90.881371   22.731422
H   53.396862    4.983401   35.867992
H   70.689896   13.241596   32.997185
H   19.313118   69.828995    0.081332
H   14.405111   53.250401   80.937080
H   13.611603   49.781708   21.576761
H   92.030312    1.480658   14.430973
H   35.925735   85.029228   77.843307
H   83.114151   75.695595   82.629585
H   96.381660   18.587593   92.507103
H   18.261971   78.025314   41.801819
H   57.600288   12.439228   41.123917
H    4.903182   31.011650   69.098709
H   93.732300   78.233032   65.542725
H   35.706547    3.391188   65.315483
H   98.633835    7.276735   98.528595
H   76.222473   56.737854    7.540395
H   58.476265   17.106073   59.628952
H   33.397358   50.858612   99.144485
H   88.666000   30.225250    6.932563
H    2.660990   45.100143   93.878090
H   40.123978   46.243641   89.094894
H   28.259474    1.361245   81.850121
H   18.435513   13.909779    6.589815
H   66.492241   54.922531   41.154884
H   91.199440   76.808182   55.237595
H   67.613632   89.153168   16.839058
H   41.779007   71.075989   56.514793
H   80.851517    0.171865   70.183510
H   43.730690   37.963814    4.986594
H    1.238305   32.020260   89.459846
H   94.042023   55.452888   59.549641
H   70.015068   84.514259   95.088631
H   42.723927   73.731285   20.590706
H   65.384628   19.828682   87.992691
H   83.807083   83.248230   66.914268
H   96.908699   78.982910   66.584831
H   93.319550   20.668819   89.979240
H   70.700111   72.643593   12.722362
H   29.825846   55.821529   71.793045
H   55.087570   44.719128   21.886145
H   16.214596   43.223034   16.968771
H   56.769405   93.546509   58.363316
H   43.658783   43.009602   64.240967
H   25.859968   75.822502   17.055134
H   44.357349   49.504730   51.591629
H   68.384232   79.240616   48.319710
H    6.585340   77.278503   49.269547
H   55.948883   51.683434   52.436714
H   81.842628   93.943451   81.412262
H    5.467854    2.506985   68.135010
H    0.540371   14.504852   62.559975
H   16.283705   76.707191   68.032616
H   42.048138   41.531570   79.714104
H   30.005222   60.450512   92.497841
H   60.990055   35.289257   71.211510
H   60.608604   39.219559   64.064568
H   21.187744   56.836571   79.832611
H   97.584839   93.687836   68.348495
H   10.663581   99.537209   83.242073
H   15.783844   68.409660    9.790885
H   22.798466   77.906921   27.267643
H   21.925491   62.682747   21.887329
H   31.975657   64.877609   62.403858
H   23.614944   27.412226   81.626404
H   19.340729   46.840855   47.813362
H   88.330147   35.100975   54.736652
H   85.487885   46.817829   17.347866
H   20.374249   46.139400   36.793983
H   21.636602   42.350605   24.024115
H   51.002083   18.484154   54.545769
H   32.492134    0.780636   59.797226
H   79.802727   27.454399   40.867233
H   18.608221   25.520229   24.034632
H   32.066551   89.765633   99.731026
H   97.420357   27.895273   49.698082
H   56.568619    6.293228   89.556709
H   20.793165   66.527016   37.722782
H    5.935937   27.833385   92.816856
H   88.202469   52.635284   23.733358
H   31.912136   59.182190    3.714132
H    3.775593   10.297969   78.065681
H    9.329103   42.316811   96.748444
H   53.501225   63.445702   50.231331
H   23.581758   17.103134   64.960144
H   14.111963   88.130569   34.760521
H   83.570374   12.377138   15.150331
H   96.473206   13.521444   56.128777
H   66.984352   91.353012   71.845985
H   91.787155   95.910500   35.119820
H   81.225693   19.323919   75.108643
H    5.997310   14.700492   88.993759
H   19.878344   58.102413   87.521202
H   54.630486   77.963676   46.633205
H   31.280632   34.028614   79.492432
