100
TIME:    8.064, STEP:  8064
H   71.986809   82.514000   91.763199
H   77.768753   41.840923   86.566360
H   18.383699   54.060196   28.680649
H   82.830124    0.412632   98.146675
H   22.938677   19.122410   47.056549
H    2.964993   92.471764   77.351448
H   30.336338    5.856738   21.068470
H   86.071793   86.240440   67.784966
H   55.399361   10.972089   92.486832
H   54.503395   32.172092   23.458099
H   50.161392   90.715286   62.983269
H   48.062073   27.897045   18.924660
H   29.535316   73.882065   23.729147
H   55.799980   80.220375   70.914879
H   78.551338   49.716599   63.101738
H   77.287018    6.422031   63.658478
H   75.648079   15.342407    7.486089
H   73.509750    2.444881   19.988384
H   70.862000   16.647091   88.205017
H   75.256760   34.565792   65.367226
H   85.747536   53.421307   38.372829
H   35.483875   54.789062   32.554169
H   78.076180   29.039621    1.628882
H   69.796844   33.297089    8.170594
H   41.168770   46.645287   96.094398
H    9.584957   88.376755   32.023811
H   66.712204    7.265109   59.973476
H   52.124237   32.839954   33.324852
H   86.514519   80.721298   75.982689
H   10.203165   91.255173   24.453213
H   33.424168   45.169914   71.381065
H   74.923210   29.712017   52.739189
H   38.374195   78.481941   24.265760
H   18.824997   34.705147   32.026886
H   80.264931   49.112053   15.671623
H   73.627518   17.036131   94.074226
H   53.240993    9.213568   43.876919
H   30.692863   11.375402   91.495888
H    4.686614    5.717363   62.850792
H    3.655149   57.259369   72.494141
H   84.134567   32.877769   32.328823
H   20.624077   73.226135   91.642052
H   80.686005   11.861374   83.944435
H   64.428864   47.996429   69.189728
H   57.162750   13.729446   46.168488
H   74.032616   16.722305   15.922171
H    4.737550   63.385933    2.871193
H   56.679806   78.426575   67.532173
H    0.751544   64.588509   22.797215
H   95.045654   53.472675   19.697197
H   42.947880   91.116035   38.433594
H   97.038498   15.459135   44.685577
H   76.142128   68.766541   34.527504
H   89.949280   75.634689   87.658951
H   98.726753   65.296295   68.935516
H    3.639461    4.051178   18.109207
H    7.475375   56.863167   22.941078
H   25.593515   15.341955    5.844153
H   26.264801   79.501457   92.412781
H   26.878220   47.614658   34.251244
H   68.383896    3.559013   85.663124
H   12.710823   52.883499   30.483490
H   21.525112   57.010284   80.497772
H   96.779839   85.691071    8.199924
H   52.398148   16.785704   46.534409
H    5.964508   41.387932   22.990971
H   40.579041   27.156338   56.392315
H   23.330284   78.725883   51.708435
H   58.812378   70.358727   54.473816
H   93.800392   53.676876   84.739990
H   65.964134   46.727753   65.419685
H    9.217000   83.843163   47.133640
H   81.203018   19.434015   54.990902
H   52.686108   39.049152   24.017786
H   50.921814   40.189014   12.719463
H   16.293436   24.399174   53.323669
H   99.165733   27.840752   33.757339
H   10.840550   23.437984   59.785679
H   48.210281   29.832211    7.650530
H    4.059633   69.735100   26.200294
H   68.681282   12.708138   61.957184
H   46.412109   96.766800   12.370277
H   27.940104   41.976719   97.917007
H    4.940160    2.212822   26.895580
H   59.680557   44.468533   66.038658
H   65.701828    5.257201    1.771720
H    5.731155   17.033989    8.065987
H   85.720329   59.785789   11.966843
H   23.035709   45.181267   62.237679
H   53.373470   77.501968   12.486273
H   54.034809    8.864856    3.758863
H   74.953239    1.969643   87.178612
H    2.371542   69.479851   42.606079
H   26.620584    2.406437   70.541924
H   17.169617   27.405556    1.389438
H   59.974930   77.293640   50.932899
H   22.519888   30.455051   73.420586
H   22.711931   85.466148   16.996241
H   24.562492   71.624504   69.593666
H   40.096912   71.696335   20.909153
