100
TIME:    2.997, STEP:  2997
H   14.647579   47.181114   96.402176
H   17.903313   67.238861   67.049850
H   31.270491   89.520599   88.158745
H   81.979645    9.173323   75.888245
H   68.327194   12.980268   84.444153
H   81.546761   97.961220   75.549339
H   95.898140   63.710854   24.822243
H   84.328003   47.879948   33.019421
H   79.955956   98.143951   11.436056
H   92.941597   59.415840   25.048838
H   21.481384   86.833466   51.062809
H   41.454308   73.914856   79.599525
H   52.622375   80.384628   27.251808
H    6.687318   95.838264   85.313011
H   16.955265    2.323485    6.708467
H   81.021225   49.600555   84.264015
H   83.106178   80.198563   46.217083
H   65.189049   48.956596   95.642761
H   91.946053    4.079514   21.256388
H   11.775856   42.170063   20.382288
H   86.430496   57.857346   75.897781
H   49.705658   48.062546   64.056046
H   45.729759   70.247810   46.603210
H   40.587753   72.626007   84.490410
H   22.393963   48.482849   58.673836
H   32.916943   38.308552    8.262939
H    3.643762   17.894823   59.438656
H   79.663383   96.329552   65.839012
H   76.337494   21.003256   15.502546
H   15.911937   16.664627   21.641335
H   34.005497   90.802475   72.265846
H   54.989571   69.705482   21.816734
H   81.462494   49.207237   67.790382
H    4.731095   99.065681   45.491638
H    6.273427   32.370026    7.225769
H   33.132229   19.914484   10.337720
H   67.249458   94.778305   44.617123
H   40.119377    4.100610   33.931316
H   18.567497   16.117590   53.880524
H   80.909180   31.613886   73.832741
H   30.427576   59.015728   12.953965
H   62.267876   46.366127   43.602356
H   37.055752   81.472061   17.950371
H   87.980789   63.002594   73.764122
H   96.688316   13.646084   12.572188
H   39.422184   20.079975   95.338142
H   65.148727   87.824310   54.229645
H   56.399471   26.240217   54.015297
H   52.633141   84.237968   24.921988
H   88.737480   76.359459   74.049713
H   43.315968   80.302322   85.016724
H   50.780918   85.640121   77.314934
H   71.046959   39.386353   28.807865
H    7.291904   58.311203   64.065765
H    2.167130   21.233398   25.838881
H   97.316147    9.382248   90.601852
H   86.248589    3.069404   41.027153
H    2.893732   93.857651   36.360794
H   26.643898   65.399323   81.402351
H   61.246353   58.148418   78.368782
H   48.754005   39.197376   80.725815
H   92.545219    0.046441   59.751587
H   77.527351    2.772842   27.957199
H   48.838577   58.097435   45.773586
H   51.279453   21.478283   74.666573
H   17.234566   93.283180   23.390388
H   47.113869   51.975216   11.757171
H   73.342430   88.938354    9.476531
H    6.271091   34.441017   72.266884
H   91.104553   98.882393   95.422302
H   26.864670   91.483513   26.198093
H   26.851103   52.060562   76.048767
H   11.581339   70.061119   84.904045
H   64.238304   59.724609   25.087929
H    6.669775   32.910511   28.591293
H   96.506691   99.651726   94.269836
H   39.063099   66.787735   44.053120
H   72.784836   54.755062   79.953461
H    5.230986   44.715595   51.119560
H   52.546852   45.731342   62.726974
H   69.529068   60.286999   59.112309
H   66.193542   63.800247   36.170631
H    7.419073   57.281952   15.349199
H   56.338131   68.618744   89.687408
H    6.399874   61.421787   57.226875
H   82.315674   19.138405   49.904034
H   67.317574   85.446602   66.451828
H    4.199949   65.347336   64.574928
H   17.879105   27.303675    3.680443
H    1.362908   85.970413   31.353806
H   46.672211   35.261333   96.752884
H    0.038727   20.897539   90.630501
H   77.568161   17.441275   50.767052
H   36.899387   95.022621   28.891350
H    4.773059   81.276764   84.955223
H   41.461517   77.383247   12.650160
H   24.714447   39.672131   64.829384
H   17.868116   41.755341    8.081781
H   65.943291   49.769184   94.006035
H   25.366404    1.727304    9.028668
