100
TIME:    3.228, STEP:  3228
H   99.026276   25.997185   96.190689
H   11.477327   79.762405   81.621292
H   35.241158    6.139636   85.448189
H   82.018417   99.655571   63.227123
H   66.258148   31.495937   78.180618
H   77.965584   97.710960   98.425163
H   83.790520   79.308037   42.886742
H   66.171860   67.864029   11.809143
H   74.277534   75.934311   96.895302
H   86.628716   62.732658   34.095184
H   99.994339   96.128311   28.812506
H   32.637070   85.493759   63.156425
H   37.929329   66.408875    4.292460
H   95.249657   95.126259    2.891361
H   19.765396   81.689499   95.604713
H   71.733429   29.396515   65.089211
H   64.530586   95.478485   67.245926
H   70.123741   37.723122   87.634460
H   95.544853   13.770808   33.425694
H    5.552856   37.265331   36.109856
H   72.722626   34.859917   69.627197
H   71.851852   48.369202   44.384247
H   42.645576   68.369102   39.994247
H   19.125366   75.396484   67.335304
H   14.132659   30.162804   60.379311
H   31.857626   31.426344   86.610664
H   83.725052    8.292087   64.022621
H   60.171696    7.111816   73.473686
H   81.360306   41.961136    4.583589
H   24.768833   10.947043   40.004944
H   43.097668   11.516881   53.989861
H   69.575111   63.322296    0.431952
H   97.732880   32.305916   88.600685
H   14.491652   77.895851   35.759720
H    0.530954   14.908237   21.291405
H   53.216427   38.061230    9.543763
H   89.406227   86.318832   62.819088
H   30.572510   99.872871   50.231663
H    8.816518   11.085085   31.494665
H   59.151104    9.988355   92.006508
H   14.640966   66.941849   18.395979
H   41.506920   56.734268   54.455154
H   39.045490   82.857300   34.635662
H   73.229584   66.873260   96.350914
H   76.649940    4.532324   32.340023
H   36.441982   24.485950   96.275734
H   66.953415    0.386649   56.448494
H   56.411808   28.618563   68.308281
H   59.384857   65.105461   15.707316
H   93.580528   79.873665   57.892788
H   43.298344   58.001038   87.452347
H   62.007343   64.205933   62.151112
H   75.837135   40.725769   15.391670
H    1.943050   54.541451   74.259430
H   83.774857   41.477974   27.803064
H   97.605179    9.139212   82.738068
H    0.893968   96.403893   62.997108
H   85.692863   72.042786   30.410728
H   44.861725   75.159439   63.669147
H   46.003441   75.903320   71.798592
H   63.325447   28.455608   62.714314
H   84.346581   97.896317   49.298851
H   93.209099   87.009941   12.116837
H   64.701775   59.354019   39.501240
H   60.449169    3.028451   96.178307
H    3.044133   81.799446   37.048355
H   28.580410   59.960606   22.910456
H   57.385750    2.149354   20.519667
H   17.784447   17.842827   57.779278
H   95.785461   10.501118   94.935883
H   19.528721   75.766518   23.426735
H    7.804259   44.394165   92.960663
H   96.519363   58.634609   78.982414
H   59.153889   45.105583   11.358910
H   17.806856   33.240078   46.102573
H    1.967095   14.456778   78.725555
H   60.037304   46.765465   48.138340
H   83.637634   39.649616   92.709641
H   16.307981   44.037075   53.697937
H   41.218208   33.149639   42.826065
H   74.047836   62.676800   72.918869
H   83.524887   65.308853   16.854143
H   22.034315   61.138062   37.350864
H   72.230515   88.385712   68.588074
H   95.151962   46.971951   34.833946
H   77.000305   27.623432   65.945312
H   82.745537   68.651024   77.466766
H    7.917711   46.852814   62.172371
H   22.673687   14.442579    1.790506
H   80.940247   76.467606   39.610672
H   56.125671   47.733768    1.631211
H   17.131678   38.269417   95.032951
H   92.375763   24.372755   68.630638
H   59.227108    9.034283   44.465767
H    0.778805   60.586010   90.263542
H   60.541153   68.261116    0.718339
H    6.379189   52.928829   51.544487
H   18.715826   43.722168    4.385609
H   54.938927   50.764935   74.658501
H   39.714024   95.799080   86.776199
