100
TIME:    6.407, STEP:  6407
H   84.043289   34.467552   93.280228
H   23.529408   52.050953   82.087746
H   89.896561   34.848686   48.135464
H   82.552002   68.681854   88.973267
H   37.784134   86.306732   91.985886
H   28.664387   94.266914   13.252594
H   17.179771   93.968346   91.488823
H   16.308731   42.888432   19.923985
H   96.131584   70.286438   96.788475
H   99.761421    8.379009   58.577702
H    4.291489   24.041876   22.595169
H   11.302307   44.840321   36.871315
H   35.222855   74.146400   88.389824
H   37.844078   85.327705   44.816181
H   58.425423   97.728020   42.789539
H   43.912766   51.349403    1.203653
H    8.894279    5.744932   56.642830
H   38.077877   83.074539   77.424843
H   45.056507   47.135971    0.909043
H   19.902344   69.750282   52.550957
H   84.076263   18.379925   83.345528
H   76.625671   52.589371   73.663055
H    0.199537   42.514503   49.039124
H   23.754944   13.474581   31.233549
H    0.434002   78.053101   83.857033
H   17.339602   37.252754   87.931694
H    9.595741   76.146744   27.091879
H   91.937943   55.496803   78.555191
H   50.485085   30.384846   54.309509
H   46.665501   32.266747   92.727097
H   68.213097   96.584053    2.477543
H   70.299164   75.491531    6.135952
H   21.657234   99.716255   74.990112
H   48.813133   86.559464    1.835358
H   21.503769   74.570259   14.857368
H   29.586878   87.252220   99.282692
H   94.313881   69.897095   13.311748
H   99.180687   41.702854   74.565056
H   74.631927   41.818047   23.426233
H   59.724819   12.381109   42.124020
H   97.379089   76.021599   93.291847
H   60.266922   66.728195    7.049076
H   66.425934    1.921513   64.257195
H   70.233978   20.184042    7.178672
H    0.896358   79.103775    4.374202
H   95.422722   85.120560    9.190355
H   91.789352   73.272293   86.965828
H   56.581585   61.360001   65.006775
H   52.310982    1.823054   88.896103
H   60.256489   28.251131   35.554260
H   43.061657   51.089188   20.966473
H   16.502831   69.218445   53.456551
H   41.773251   59.158691   30.759745
H   28.320770    2.664035   14.539672
H   30.660511   20.083527   54.844219
H    1.575670    5.794181   74.517395
H    2.428831    4.675101   65.346458
H   48.976959   71.825371   48.526352
H   95.583939    9.481027   19.617561
H   36.222694   20.251102   81.380272
H   63.859150   80.615982   14.856428
H   71.520973   68.306625    5.456294
H    9.031240   70.080849   94.123230
H   82.997238   76.664749   53.191921
H   86.627762   49.128231   92.224678
H    7.755070   23.761986   25.015684
H   73.522781   69.866882   76.391922
H   37.790550   83.960121   72.494247
H   76.226936   89.420181   58.398090
H   60.186943   70.396904   88.241821
H   18.581219   59.468933   85.292763
H   45.680363   38.889236   25.711983
H   89.242432    1.391380   97.470520
H   89.166725   43.919926   22.471125
H   71.076897   37.775547   87.091812
H   77.124596   18.200958   64.818268
H   48.675381   71.259300    4.370653
H   32.992840   31.781874   68.275749
H   68.750404   34.699345   89.164101
H   85.320023   60.000130   68.952415
H   36.247635   95.565018   62.920368
H   22.073469   86.021179   50.994343
H   23.131798   14.265859   40.113991
H   90.941048   60.420067   78.236290
H   40.361916   48.124367   26.665482
H    3.830934   44.394440   86.704636
H   95.063759   37.511696   29.053946
H   59.071190   92.379089   29.147194
H   88.645859   37.440224   75.789803
H   99.873276   45.675602   53.250389
H   86.223473   19.391819   68.765915
H   52.352016   77.347107   55.602493
H   96.154648   19.760624   14.467723
H   66.478065    1.878442   58.813156
H   45.819450   75.830032   63.312138
H   23.113556   42.725677   36.519196
H   54.044670   35.364120   68.716873
H   25.910334    3.477962   50.259949
H    3.498488   64.469185    8.383080
H   37.174259   14.221306   80.534096
