200
TIME:    0.023, STEP:    23
H    2.803185   63.195171   11.629011
H   26.030155   29.709917   81.087845
H   22.685980   59.640099   34.659782
H   10.527901   74.437416   50.174191
H   17.514223   78.229416   56.778439
H   96.677979   58.704716   71.973076
H    0.215337   55.458099   45.451160
H   98.025940   79.515808   32.774910
H   78.615829   90.759438   53.013130
H   18.500042   77.938530    4.631510
H    4.629959   89.958565   86.104263
H   29.880478   36.230801    2.402615
H    5.848178   79.806114   70.185448
H   14.660820   52.291401   31.809170
H   30.098785   70.274109   43.512516
H   35.625526   34.907318   59.004154
H   73.999115   97.555275   25.967737
H   41.715168   72.735237   47.383659
H   57.805447   37.557758   39.289394
H   89.365875   82.684715   45.882717
H   55.480850   65.925804   35.782223
H   94.860008   40.519920   78.937019
H    1.503466   64.119225   54.343002
H    4.048445   86.140907   92.278717
H   93.814590    3.976379   53.153492
H   18.840723   52.706604   14.123549
H   94.693901   54.442585   40.356964
H   89.530304   61.177456    0.160291
H    1.929040   63.125557   39.609020
H    2.855586   14.951195    6.132046
H   13.644803   42.383305   15.929506
H   35.872124   58.420395   88.260574
H   32.366516    4.316186   70.528572
H    3.608868   63.341171   34.497368
H   58.402027   98.767624   35.869701
H   40.149616   54.869648   76.988144
H   80.036179   79.112633   84.325844
H   43.648849   39.142075   24.924181
H   61.101463   54.171074   39.608105
H   92.163811   40.580845   72.172943
H   80.441635   15.365002   94.321602
H    2.538362   47.657246   46.265545
H   80.609024   92.766876   42.270580
H   37.764694   52.695370   10.987397
H   21.362911   69.674492   36.533028
H   44.113506   19.486010   40.327850
H   75.884872   36.843479   91.420876
H   95.398773   65.553917   55.448746
H   78.688240   36.987011   61.009880
H   69.882263   16.822229   14.893205
H   83.370331   73.242722   36.468636
H   29.433393   31.962994   58.875393
H   46.325123    0.632252    5.089218
H   25.636213   77.604370   78.489685
H   86.384048   81.210945   97.791351
H    8.087440   77.695923   71.542480
H    6.049774   15.924314   51.982334
H   65.037888   53.534847    9.220054
H   32.760010   70.285538    1.878095
H   48.122177   97.207680   71.005699
H   51.122311   19.610134   48.576542
H   86.037804   15.910861   47.403152
H   65.469017   20.711159   92.205887
H   18.868334   64.842743   98.822731
H   67.860069   72.844070    9.055953
H   47.251858    8.130698   28.962753
H   94.280861   27.739248   81.351814
H   98.556618   90.956566   82.975327
H    8.803958    2.920804   64.726410
H   46.486099   37.847816   50.994183
H   58.560360   72.838936   67.476883
H   38.238815   29.525715   46.283821
H   70.606583   21.911556    6.761707
H    0.795812   13.734414   54.255768
H   76.502731   97.358543   77.816048
H   47.828827   26.737793   64.295303
H   96.344772   21.871801   75.215019
H   34.592529    2.018460   55.387840
H    9.880775   20.025261   39.744602
H   71.545860   91.877174    4.552813
H   34.158115   33.769371    4.354654
H   17.094946   72.492447   94.565636
H   11.846334   11.285993   96.628860
H   31.750423   54.763786   86.778900
H   46.635632   97.029221   63.931843
H   18.553576   93.366806   32.300068
H   26.129522    2.331929    1.273848
H   77.136070   26.620670    3.257478
H   59.050098   71.510948   76.376617
H   24.531017   76.320633   57.252850
H   50.338898   33.019508   81.719688
H   85.566971   86.631546   93.632889
H   36.951233   19.309458    1.910025
H   69.759018    2.229768   63.146362
H   19.626310   59.861542   58.901978
H   78.258553   22.857624   39.264305
H   76.361977   21.784739   88.983482
H   12.860157   25.066710   46.538998
H   41.934975   71.951805   52.112232
H   63.431370   94.401001   27.197428
H    0.184568   74.426575   58.721134
H   82.503014   73.373558   67.061584
H   18.681189   45.100174   27.470236
H   11.448654   67.538834   81.545082
H   25.626406   30.324467   18.052135
H   78.832306   37.397354   54.050228
H   55.378819   27.402327   57.269135
H   66.029305   25.942677   27.132492
H   67.281830   42.828808   88.639534
H   97.396255   31.085958    4.475211
H   44.339497   97.952484    0.643175
H   77.280647   57.887684   88.039383
H   60.862965   77.756523   98.655426
H   63.959251   24.075598   80.549835
H   71.091759   72.932419   34.381413
H   22.894230   12.145628   69.144951
H   41.496853    5.387044   81.650375
H   41.872074   16.315514   38.316124
H   10.621285   49.566509   94.264496
H   65.055984   42.343868   41.247807
H   38.289742   20.317425   94.630539
H   27.652222   32.620602   41.805080
H   27.004721   30.974606   17.591846
H    7.274441   75.128189   27.367811
H   83.407173   14.320399   99.990166
H   39.772259   56.414696   29.721241
H    0.780400   48.176712   79.435303
H   80.175217   85.868034   33.169849
H   89.797272   60.338562   89.835480
H   57.227303   25.177874   62.804703
H   39.849289   92.933807   95.118568
H   90.029221   83.899124    4.209669
H   93.146339   72.037109   95.760963
H   11.561193    7.439177   47.035816
H   93.706169    5.293769   66.388435
H   68.137703    1.905350   86.878525
H   68.533455   86.011559   44.536011
H   89.367409   70.995552   86.627075
H   40.641220   41.298958   71.601410
H   43.330399   19.497587    1.487301
H   39.874607   69.450798    7.900431
H   67.228058   34.417484   41.188271
H   61.981281   52.766907    6.703391
H   67.656487   34.382877   74.528511
H   30.101917   76.963875   41.972736
H   37.989216   58.236607   40.239063
H   39.598961   97.728096   48.835655
H   48.577759   81.496262   70.069969
H   59.384129   73.851608    0.101701
H    2.508177   86.246986   98.105392
H   83.868996   57.624630   52.982391
H   24.653046   13.114056   54.952618
H   66.094933   39.952579   11.082684
H    4.173519   96.161263   81.314941
H    5.007632   48.148254   56.827007
H   57.060242   42.990841   47.384838
H   57.039806   54.376335   78.186325
H   42.960896   40.141579    4.640196
H   22.313543    2.551981   10.652132
H   66.111832   65.797852   69.913513
H   51.824390   93.225342   89.185577
H   53.792538   24.180853   37.423885
H   55.878582   44.030750   37.322281
H    3.309479   13.804784   80.483276
H   61.031937   14.725175    7.692367
H    8.174985   71.343010   63.488045
H   78.636475    1.076595   49.921272
H   23.442650   21.059521   39.039478
H   91.124374   28.875900   37.369335
H   16.570110   12.097288   92.846985
H   83.510559    3.053186   35.994286
H   53.659401   73.506470   56.791744
H   33.480190   86.778458   96.529800
H   73.893120   79.746109   69.217636
H   81.523651   96.668945    9.434062
H   94.207298   46.488701   23.078556
H   37.646980   46.142384   77.830429
H   99.806725    8.993912   62.105450
H   81.151070   26.424112   71.672844
H   96.623062   52.127357   83.323837
H   85.379616   77.413162   46.764675
H   14.850785   29.841152   61.694225
H   75.624908   90.390915    1.775175
H   46.755898   24.818447   69.207085
H   82.716759   97.746346   79.290848
H   94.717522   34.392700   82.868141
H   23.796379    8.241645   94.457352
H    0.846216   58.033318   17.933649
H   12.902540   60.205719   64.063354
H   45.667500   59.453739   62.961384
H   37.453865   38.203762   80.851082
H   49.431835   79.032028   27.388376
H   99.280502   12.361516   52.835339
H   38.894840   54.869923   28.939789
H   92.341400   63.947922   22.526114
H   74.798355    9.850970   32.539452
H    8.018857   79.642372   96.142471
H   35.216213    1.718703   53.086559
H   14.807055   11.004711   87.722069
H   10.271119   42.344337    0.763734
