100
TIME:    6.194, STEP:  6194
H   98.447830   54.000786   93.475235
H   29.411316   40.508144   68.658241
H   86.233673   19.525021   50.636433
H   82.516251   77.457184    0.647771
H   39.691956   69.233841   97.761353
H   31.968136   94.497673   92.158775
H   28.343128   79.586555   74.831947
H   33.050110   24.461864   39.481594
H    1.367547   90.765457   10.196153
H    5.579905    5.320416   50.237888
H   24.104233   15.471329   43.111938
H   19.432487   34.163670   52.033134
H   48.814865   87.026634    9.554619
H   48.390724   85.984230   28.606197
H   55.838326   16.754211   53.032299
H   52.476837   69.979103   18.884865
H   26.022591   91.656166   37.252602
H   33.522831   93.439178   84.809120
H   41.739758   38.199760   89.686493
H   25.640434   74.274452   38.048912
H   96.715988   39.585346   89.127495
H   56.205154   52.306610   91.801987
H    3.043673   44.246819   55.133102
H   43.546223   10.926485   47.053478
H    8.051845   94.943985   82.283974
H   18.310575   43.549866    7.961792
H   27.962994   85.000076   22.865095
H    9.910443   45.554680   71.515427
H   45.853661   11.060329   64.378387
H   38.497944   37.538445   75.793961
H   59.830223   77.483086   19.329369
H   56.850163   81.377502   25.854424
H    6.653605   15.299891   55.801392
H   39.813545    6.079617   10.808249
H   26.804718   90.697365    1.897833
H   11.071636   70.569344   99.952217
H   73.883614   77.697388   96.528419
H    7.984196   45.601376   59.533726
H   83.621765   46.459221   44.067421
H   79.787476   32.321507   25.365088
H   11.935829   68.712074   88.273659
H   78.217346   65.892914   96.174797
H   64.592865    0.643758   48.872711
H   83.835739   16.608908   86.352257
H   19.372486   87.508591   86.147324
H   98.172325   81.057907    8.325010
H   90.125290   61.688858   84.921501
H   56.570210   59.166168   51.827534
H   46.085373   19.463150   97.391922
H   55.785946   25.008322   50.447945
H   43.076283   71.652710   18.721451
H    6.149706   88.982574   67.438576
H   37.354710   57.923645   43.131252
H   33.252831    6.139634    5.141131
H   47.619713    1.416946   53.032276
H    1.310379    6.018236   81.768417
H   88.924797   10.821488   45.088448
H   64.837555   91.940376   54.012558
H   78.784058    0.480220   35.968925
H   50.277847    3.878664   87.438499
H   50.423145   90.522354   31.462955
H   79.080757   70.289200   15.094178
H   94.570854   84.615395    8.729279
H   68.371689   75.504456   58.975513
H   78.174194   66.140793   72.389183
H   20.839249   34.350883   12.421346
H   90.611923   62.502438   66.108536
H   52.503853   71.778664   62.311619
H   65.612038    4.724983   71.756775
H   55.872406   59.683846   88.690338
H   25.345535   73.961227   87.847359
H   63.242397   45.958252   10.117084
H    3.130364   11.926651    2.931546
H   93.856651   57.399807   35.126488
H   60.807018   37.471661   70.945206
H   72.090157    4.549582   79.151306
H   29.330544   89.693993    0.593011
H   22.985714   45.710258   56.512520
H   58.536137   35.324993   86.788261
H   95.765915   71.603065   87.302605
H   32.079353   93.361435   50.189640
H    6.089796   84.639740   68.812920
H    9.658418   10.704131   19.828354
H   76.286247   42.193382   97.691521
H   50.733055   61.448242   47.313507
H    8.733570   36.569771   71.913330
H   80.837975   52.998528   18.897314
H   55.645561    9.423178   31.355652
H   84.225693   49.299919   77.531868
H   18.705618   54.439556   45.636978
H   77.506645    7.890452   64.267746
H   36.592175   61.327255   51.544716
H   82.500885   13.369260   97.996109
H   45.893223   88.956001   44.450867
H   49.501839   94.908249   58.417454
H    5.520615   51.136993   47.520859
H   70.951805   23.141001   80.966583
H   26.321474   92.938126   54.535484
H   13.645053   63.550198   26.224625
H   23.944635   19.687199    1.052187
