100
TIME:    8.926, STEP:  8926
H   13.693343    3.464986   90.974014
H   53.961685   88.550613   40.917973
H   33.200642   16.076122   18.562645
H   82.974808   64.899284   50.899002
H   15.214533   88.215515   23.684704
H   89.600342   91.537895   62.718529
H   85.158165   64.065666   88.477989
H   18.320297   60.813313   88.637917
H   34.209755   28.094112   38.227268
H   30.959242   44.549137   57.209724
H   69.980255   25.398453   79.951561
H   15.159653   71.104897   57.566475
H   74.568222   21.709145   38.066124
H   13.119592   77.563454   36.512905
H   89.021187   72.718513   21.649818
H   42.628662   31.028465   92.104553
H    6.331158   72.355400   85.957344
H   91.940811   60.499779   90.107498
H   84.291290   52.811474   33.617832
H   52.031818   16.260458   24.056147
H   34.595222   67.606598   14.977690
H   18.124659   55.933380   59.146927
H   66.567238   22.032320   76.966751
H   89.703796   43.609100   44.151997
H   10.339969   78.284256    2.459311
H    5.519550   62.965012   50.906162
H   92.379906   71.435257   77.074020
H   79.391357   73.075211   61.820992
H    5.257964   58.928463   35.234459
H   43.254967   69.920883   92.980377
H   67.351875   22.467716    3.182370
H   29.350269    5.897748   72.939552
H   99.091568   15.413807    1.921528
H   55.247055   55.708038   95.713997
H   58.812263   83.846565   68.118988
H   48.559193   84.554718   91.364693
H   35.918709   77.645271   11.799134
H   95.064720   95.601204   52.323318
H   68.304497   86.935753   79.316849
H   22.464357   76.561562   40.313759
H   25.222319   62.452461   52.637173
H   47.979279   76.606476   35.649189
H   88.104340   17.032505   46.206646
H    9.389866   62.471390   53.470493
H   82.391144   79.726158   19.933458
H   62.905762   33.160595   19.424177
H   11.476701   10.264246   11.149242
H   56.732418   87.304901   20.867435
H   25.946487   93.199440   88.412170
H   13.140699   66.594170   59.427898
H   42.888691    7.895569   47.522369
H   38.933086   35.472233   88.099556
H   94.017159   73.764709   84.464798
H   69.982910   61.572914   25.695438
H   30.093910   40.836914   76.261780
H    4.713081    3.144438   88.764679
H   62.120087   31.990700    4.924284
H   61.407410   33.937019   83.641258
H   94.252769   15.923936   26.236189
H   69.993813   13.869626    9.733910
H   22.759611   63.468960   18.455364
H   82.116722   44.860123   91.481407
H   80.047333   98.188377   21.387848
H   55.973232   90.386719   84.798599
H   86.611526   47.939594   26.808477
H   53.010567   98.535820   73.959145
H   71.418716   56.955166   98.008652
H   63.785873   28.025379   92.917023
H    1.771343    8.420891    0.408550
H   11.307418   96.975235   82.911713
H   38.586475   88.074379   55.081367
H   38.232857   55.222069   10.318542
H   24.999924   76.793388   32.887157
H   33.712795   84.493080   72.801125
H   92.446075   41.458286   78.077011
H   36.674126   79.646355   95.323196
H   77.453934   53.233181   49.047791
H   51.333805   67.077049    7.398335
H   89.547890   27.300243   17.270578
H   61.785851   22.777971   51.938316
H   85.556679   21.625925   13.478183
H   11.096411    2.359282   40.254768
H   82.463707   56.392490   80.010399
H   64.242332   75.976295   48.164585
H   17.709091   90.545883   82.478119
H   45.860973   36.920456   61.631744
H   63.302204   54.359245   49.169350
H   99.583672   90.807167    3.029183
H   40.925541   97.187370   55.187630
H   77.160995   42.037201   43.299248
H   89.311363   55.407269   21.962914
H   38.732510   66.799927    3.605458
H   57.627293   95.338799    9.265864
H    9.928961   54.702991   28.664171
H    2.264210   50.193569   21.195894
H   31.172623   43.253479    6.409382
H   54.098289   79.923668   23.846100
H   21.048067   28.119282   99.690025
H   83.499077   75.346825   97.390617
H   93.640152   49.577152   37.870350
