100
TIME:    0.419, STEP:   419
H   88.987465   83.596931   98.762405
H   89.614952   27.462231    4.430859
H   86.963440    4.048739   18.420120
H   81.546936   15.387186   17.196100
H   91.418106    6.342218   54.344215
H   21.519009    0.757620   20.240271
H   31.011147   89.630196   23.219118
H   86.953720   24.851002   69.723656
H   43.328178   46.008301   73.713402
H   63.389977   22.402126   24.097200
H   61.280670   83.101990   99.389626
H   39.848972   44.692894   63.104103
H   16.610130   36.357422   83.483543
H   34.335423    3.785394   89.125816
H   85.598717   32.596634   30.630987
H   84.676682   75.089058   98.259262
H   90.379585    9.706131   11.504024
H   10.098313   74.324631   85.020309
H   51.788795   95.929550   85.437302
H   81.307442   96.746918   44.773048
H   39.412491   14.504196   45.870171
H    2.524196   44.652969   83.578682
H   80.149773   91.214516   20.362034
H   80.111877   41.707005   75.956848
H   14.597876   52.944668   39.652603
H   44.737759   15.124728   49.900177
H   25.947561   25.059303    8.280684
H   97.187462   75.996689   80.624680
H   20.282043   87.107140   37.365295
H   17.059984   80.469498   16.697903
H   32.584019   59.616386   76.255760
H   92.213379   40.934601   60.475151
H   99.870911   37.825768   35.543785
H   95.805565   35.323761   54.099220
H   70.356926   27.247116   50.241791
H    8.985318   17.400305   19.202612
H   19.986900   89.190773   41.480785
H   46.671440   51.285328   52.008183
H   31.883156   71.563576    1.966927
H   23.728657   72.958458   71.001030
H    6.608456   70.556236   52.212170
H   93.963829   30.662508   22.485327
H   14.850183   66.012558   31.738266
H   52.603210   19.793505   21.699505
H   20.310673   15.360162   91.962097
H   72.600136   71.080864   84.961403
H   40.504322   48.344341   31.203558
H   56.261791   99.697205   94.503311
H   77.276665   97.748398   27.759493
H   34.677555   37.126842   54.358490
H   43.512653   29.192156   57.834751
H   25.495085   24.858540   46.556061
H   17.570688   24.438232   78.535835
H   66.985062    0.365425   50.305439
H    7.402382   95.236313    3.961542
H   94.090500   12.091595   78.363052
H   22.814880   77.456810   95.837730
H   94.859314   37.317482    2.762131
H   23.322777   56.472519   79.317139
H   31.368950   59.994644   51.692223
H   86.131271   59.083923   81.726929
H   84.040009   24.045364   76.397263
H    2.652797   78.580711    4.812934
H   71.812202   44.073738   15.763945
H   48.953690   27.379002   34.581627
H   75.605568   21.443378   70.960411
H   53.951653   62.846081   87.291183
H   51.422630   41.500656   86.233223
H   77.785820   19.679649   33.953602
H   38.874268   69.219383    0.849671
H    8.726740   66.895851   57.122166
H   39.418560   37.619804   87.298927
H   79.671997   97.582314   51.005581
H   20.968437   22.864218   78.306190
H   82.373093   29.239885   33.161427
H   35.564259   34.426315   67.735092
H    4.997053   90.228386   98.447815
H   51.665710   23.323006   37.580242
H   81.636665   52.274998   22.360455
H   78.976944   86.134972   84.824005
H   19.081318   33.616405    5.031594
H   72.761742   46.963943   51.743324
H   44.307102   14.250958   69.807556
H   78.993561   48.015965   25.159126
H   31.928400   22.674782    7.135119
H   41.649586   24.444408   70.879860
H   95.138771   72.888206   43.522686
H   62.700241   71.747887   91.383873
H   64.378365   70.842964   24.772625
H   29.290905   92.045654   39.190884
H   41.169773   96.056870   42.310253
H    9.288540   27.018602   41.507401
H   12.167904   40.185432   51.329918
H   87.725594   38.648094   55.068737
H   49.347889   12.197590   25.714508
H   28.529297   79.185478   45.807121
H   29.343809   91.726082   13.091906
H    8.403584   19.805206   49.331551
H   88.751976   38.656437    9.954723
H   65.262802   67.942177   57.330429
