100
TIME:    4.513, STEP:  4513
H   12.126762    8.156261   95.014236
H   75.837502   49.417580   62.666283
H   57.329056   98.587837   70.369987
H   82.234100   46.715202   92.789803
H   54.748520   34.494354   43.338013
H   58.041386   96.318825   25.683413
H   16.444397   66.078308   43.375484
H   65.173393   79.033447   93.824821
H   42.689781   52.386871   16.009336
H   51.511604   81.183357   84.413971
H   80.466766   47.832798    5.034847
H   83.592110   49.903938   71.688866
H   56.083237   88.679710   76.587646
H   31.623207   91.165535    0.680356
H   35.396446   66.908051   33.836163
H   20.066418   17.005730   58.422791
H   61.198524   80.470245   84.224541
H   97.576347   75.229561   43.082470
H   15.559879   67.681076    1.125964
H   70.927513    9.977476   23.598612
H   96.468910    6.933318   34.753601
H   95.046051   50.075058   34.954620
H   25.488976   57.918282    3.227117
H   99.734863   90.808014   71.899139
H   68.173370   28.256050   69.869362
H   25.973520   93.239243   66.035362
H   72.918556   54.878468   89.512428
H   51.747448   67.091293   15.946385
H    9.301787   58.546566   43.839729
H   74.041870   79.142784   42.158791
H   93.669579   26.745255   52.324745
H   50.710735   27.822838   81.473045
H   88.246925   38.289314    4.363636
H   68.786453   60.133209   81.626045
H   68.590210   17.772087   99.539764
H   64.945007   38.906498    5.239429
H   12.654772   39.260727   64.072067
H   77.460594   76.363426   40.910969
H   54.579014   83.087456    6.969306
H   38.119354   89.691231   93.107666
H   26.819778   11.036946   48.670025
H   26.018417   14.403291   14.826057
H   50.113949   90.563065   27.452909
H   91.173828   88.402344   21.992311
H   65.185280   53.829880   42.300556
H   19.863804   48.995380    1.493674
H   76.992477   70.270042   68.787636
H   56.480434   41.852402   47.816780
H   96.951706   58.682041   64.450989
H   20.528751   99.422386   68.018044
H   43.200306   33.942863    1.000983
H   24.455450   44.966862   77.792328
H    2.484526   48.176636   40.761265
H   72.179436   33.571182   30.961784
H   81.462982   54.097057   38.732388
H   99.212997    7.786485   38.993637
H   82.356171   59.326027   85.211235
H   90.008438   50.690651   97.309799
H   46.206810   29.454834   65.018852
H   61.205997   74.672867   35.250130
H   44.384491   68.695091   62.525665
H   38.739433   85.935715   91.154709
H   80.448479   99.323654   24.000511
H   52.939911   66.347397    4.609615
H   11.450353    0.397729   15.845107
H   24.104225   17.918068   13.027167
H   25.482340    4.389800   84.949448
H   68.621956   75.640335   81.950096
H   81.829758   25.510925   77.185699
H   21.820082   75.134277   92.230042
H   78.724037   88.335129    8.010303
H    1.850191    1.747116   87.042686
H   12.735201   95.075996   46.036392
H   30.860577   63.789440   35.006340
H   79.760506   35.073383   43.514370
H   32.348053   96.813316   92.262100
H   76.706619   35.389370   70.863487
H   44.009274   55.627460   63.677681
H   77.926903   40.262623   68.038094
H   78.199097   63.167767   32.122154
H   99.184708   75.970718   49.720058
H   79.941307   73.700882    9.403021
H    3.330775   82.592590   59.740124
H   60.635979   98.345894   51.223465
H   32.584290   66.595360   10.267631
H   47.426632   74.825890   55.179657
H   68.567787   75.221054   38.740860
H   28.598768   43.972435   48.809830
H   49.341660   42.895180   91.280281
H   67.329666   23.598175   85.545944
H    8.713279   17.121250   28.768106
H   12.213750   34.901161   19.519880
H   74.745598   62.930992   68.001755
H   83.426468   86.979736   31.107420
H   78.563316   45.483063   19.790543
H   66.676880   17.518192   34.346779
H    4.381968   26.672268   77.642059
H   23.431440   54.663177   83.818840
H   93.724335   56.304066   67.026863
H   19.531321   62.819546   62.989574
