100
TIME:    0.750, STEP:   750
H   66.602943   53.242470   98.459366
H   80.407600   45.409428   25.309935
H   92.650482   27.861652   14.533638
H   81.602493    1.749144   99.052483
H   88.453369   32.873329   45.369194
H   16.386276    0.397372   53.021122
H   13.663481   11.980482   49.103748
H   60.937775   53.485714   39.331787
H   35.191566   14.184061   52.878082
H   54.344246   27.153534   37.059715
H   30.491852   96.420578   67.504814
H   27.214748   61.284309   39.542778
H   95.555298   16.331558   50.584579
H   17.946033    2.764845   14.314869
H   89.624092    3.031592   14.720097
H   71.368195   46.137119   70.783676
H   63.767662   31.595688   41.640541
H   17.171234   58.228180   73.545212
H   56.942993    9.815417    2.876842
H   72.347572   89.807312   67.354546
H   19.770477   81.552643   36.887573
H   34.262806   45.089851   55.395229
H   75.730446   88.522514   10.891127
H   49.358414   45.676823   51.373993
H    2.760295   26.693867   42.096313
H   43.220036    5.262597   18.875967
H   97.405121   11.299829   14.849066
H   69.257317   91.446655   91.564407
H   27.479233   17.137957   21.719185
H   29.751028   72.277328   43.011105
H   45.604618   89.299110   50.063042
H   13.112520   31.790382   29.832802
H   23.186440   13.608816   65.362877
H    9.791278    4.989732   40.154350
H   62.129402    2.225802   70.397247
H   37.764984   43.401806   18.063688
H   51.733295   77.069191   67.562386
H   32.991730   45.227062   75.366188
H   17.002651   64.497704   70.243607
H   92.551918   41.970867   97.042229
H   83.987289   81.915169   60.012913
H   64.215446   45.519020   38.036304
H   17.701025   67.997467   55.645576
H   31.466234   25.340391   54.063728
H   91.598595    2.301030   20.287104
H   68.372734   77.303276   86.259422
H   43.999378   66.200638   34.031929
H   56.279469    3.105360   14.983642
H   86.953728   70.333420   14.555737
H   41.619686   42.164875   31.208794
H   43.487400   97.235497   61.324757
H   41.580925   94.144379   24.825600
H   24.437059   26.357483   59.312408
H   59.321667   94.966133   64.911942
H   81.052536   24.253485    6.770338
H   94.504654   11.743731   67.095032
H   43.797844   67.906013   27.318794
H   70.212097    6.058972   94.236404
H   49.427109   70.457794   53.906269
H    9.527186   85.435211   42.277794
H    7.010916   43.692039   55.918854
H   72.292175   20.964462   61.421623
H   25.104614   56.009315   82.105080
H   94.540169   45.874298    6.776297
H   62.092979    0.942313   65.408211
H   55.271614    4.988389   90.531715
H   27.395067   74.290619    3.271692
H   28.558296   60.430527    2.056937
H   94.281273   95.896118   13.192953
H   45.579018   85.866356    0.153628
H   98.215492   44.372761   53.152348
H   12.126492   26.634621   11.532667
H   58.090530   81.208076   42.517948
H   13.683063    1.917538   58.633873
H   98.333176   29.710859   58.253101
H   43.390255   55.641609   45.463787
H   35.049900   61.540642    4.305107
H   67.216690    1.679593   55.861103
H   97.500786   51.305515   26.051224
H   62.744125   68.109169   56.307983
H   25.558788   37.040752   24.814114
H   97.595833   49.125626   24.063549
H   65.249809   19.775316    1.333750
H    1.762094   76.340065   94.925880
H   15.810492    1.970017   75.048409
H   34.030666   36.603085   93.865410
H   17.245535   48.821815   59.305996
H   68.028687   45.247078   87.944374
H   71.247261   52.413109   22.064209
H    0.026139   78.424026   51.024578
H   54.715641   13.930040   49.300365
H   33.779362   51.913048   47.813148
H   33.404747   50.102402   76.936760
H   19.717768   58.726990   77.386589
H   43.625492   82.549255   33.319756
H   55.868515   66.114372   28.710640
H    3.071232   10.721288   94.055634
H    9.618899   22.623474   44.035934
H   72.983818   40.083248   82.227425
H   85.818985   59.440563   25.450407
