100
TIME:    5.844, STEP:  5844
H   22.116442   86.097649   93.795670
H   39.077400   21.541090   46.588871
H   80.214844   94.345215   54.746006
H   82.457504   91.876740   19.832962
H   42.826874   41.179794    7.250990
H   37.396832   94.876854   57.497936
H   46.685604   55.953594   47.461491
H   60.559418   94.182663   71.617882
H    9.971260   24.416733   32.227554
H   15.140871    0.294571   36.533970
H   56.660385    1.388768   76.825340
H   32.791939   16.619877   76.946922
H   71.149155    8.191864   44.332451
H   65.720894   87.063026    1.970087
H   51.583076   48.017654   69.858063
H   66.549255    0.591296   47.938202
H   54.167427   68.504768    5.390722
H   26.038015   10.469437   96.942909
H   36.289700   23.515848   71.245483
H   35.069221   81.708534   14.219263
H   17.485466   74.429138   98.628380
H   22.650314   51.841980   21.607666
H    7.717045   47.093346   65.146683
H   76.066673    6.739474   73.047806
H   20.569244   22.701149   79.699135
H   19.906073   53.897232   40.874069
H   58.145081   99.547806   15.919683
H   39.442020   29.217857   59.946800
H   38.243340   79.305511   80.923492
H   25.077766   46.200859   47.969559
H   46.054207   46.098042   47.020256
H   34.750858   91.049286   58.255699
H   82.000969   40.907082   24.270628
H   25.024860   38.154930   25.552244
H   35.506119   17.157927   80.586761
H   80.646698   43.156166    1.052897
H   40.314636   90.514771   68.949684
H   22.449970   52.007397   34.836231
H   98.393799   54.085564   77.985420
H   12.754313   65.088524   97.827843
H   35.855148   56.702744   80.027809
H    7.713508   64.520386   78.305229
H   61.578632   98.544678   23.592651
H    6.185429   10.734274   52.130768
H   49.731548    1.319119   56.197369
H    2.689521   74.382187    6.903082
H   87.390915   42.655045   81.562279
H   56.551517   55.561279   30.171499
H   35.855499   48.449127   11.353774
H   48.444088   19.680769   74.926437
H   43.100315    5.442715   15.032273
H   89.140450   21.459583   90.413734
H   30.094196   55.894226   63.460155
H   41.357155   11.850713   89.696617
H   75.486839   70.745926   50.054905
H    0.874442    6.386402   93.683243
H   66.734703   20.920860   11.800552
H   90.899567   24.994139   63.027451
H   51.179863   85.692101   62.837364
H   73.374252   76.977829   97.393333
H   28.344982    6.799591   58.750629
H   91.502937   73.546951   30.931618
H   70.810631    8.498697   32.729828
H   44.336914   73.597870   68.477814
H   64.283356   94.093369   39.795643
H   42.339714   51.750481   91.726219
H   18.693489   50.403362   49.210953
H   76.680641   51.762180   45.579594
H   48.167294   29.873756   93.706543
H   48.782791   42.078636   89.427338
H   36.460075   97.774857   92.045052
H   92.102798   57.574005   84.492447
H   25.951916   29.238129   11.906364
H    1.562596   79.551720   55.922691
H   43.933468   36.972317   44.413223
H   63.817543   82.118828    2.703038
H   97.551933   20.026632   94.402138
H    6.542078   68.596764   37.182304
H   41.753376   36.353054   82.884300
H   12.929895   90.668922   17.455212
H   25.230066   89.740524   29.270777
H   79.820023   82.369995   98.089958
H   87.520683    4.851348   86.496536
H   52.206894   12.242634   29.657993
H   67.774834   83.339577   81.242188
H   16.789829   23.713196   47.608368
H   57.462273   78.446373    2.207916
H   50.016594   37.430752   34.984573
H   76.962509   68.787682   80.394417
H   49.651012   68.839523   33.126678
H   63.183220   88.990814   56.876385
H   10.695719   35.003555   44.877007
H   60.065125    2.867035   70.930069
H   12.067976   67.721870   20.850863
H   55.552711   26.259594   50.374546
H   76.612015   64.958405   65.598709
H   98.733482    3.055998    1.095254
H   26.997057   75.618637   61.561012
H   30.318237   62.041485   55.541718
H    2.205410   28.668713   34.769672
