100
TIME:    1.903, STEP:  1903
H   88.630524   47.506485   97.403763
H   48.334862    7.922029   98.040977
H   12.465696   10.813682    0.996222
H   81.796021   54.246849   35.853130
H   78.126053   25.291355   14.106823
H   98.506966   99.146431   67.207024
H   53.233128   89.836967   39.269936
H   70.314247   53.234867   33.466919
H    6.848625    3.327632   80.300423
H   22.835775   43.707619   82.209587
H   23.242599   42.813725   56.442204
H   83.208298   19.077974   57.471275
H   22.212906   46.573311   35.986336
H   60.856117   99.210274    2.058251
H    3.647006    0.043945   59.298462
H   25.009628   45.286201   75.075943
H   71.069107    7.845436   46.617653
H   41.810768    2.157619   33.573044
H   74.902382   58.188423   63.618084
H   41.247551   65.399033   45.897713
H   51.349915   66.768555    5.594028
H   44.819950   46.611679   57.218849
H   60.336235   79.145241   77.902802
H   42.232216   59.505222   65.742050
H   61.521599   35.248779   50.602715
H   37.933224   70.903625   10.804418
H   97.980644   63.373920   37.729259
H   71.971603   45.265316   29.674921
H   52.549805   21.746992   67.216484
H   73.962975   43.740860   34.671169
H   90.960365   92.696701   58.825726
H   85.913849   99.936714   23.093803
H    4.401796   29.249298   69.234222
H   58.507637   99.324265   91.581329
H   33.469780   15.068099   40.607368
H   38.013470   33.974369   14.097844
H   62.320572   34.845070   58.414249
H   85.336617   24.123798   56.729786
H   65.170547   39.884560   59.734383
H   83.951866   34.030567   87.758377
H    5.193092   21.480089   87.178391
H   60.590393   97.264305   92.206329
H   27.632490   74.911667   38.929031
H   57.839684   44.665207   66.798386
H   91.584450   56.806248   18.955027
H   53.536213   99.213600   90.897774
H   56.174000   28.396837   43.884224
H   56.341045   14.976538   86.324806
H   20.657476   74.842369   68.564590
H   65.801140   59.714275   50.565517
H   43.399433   85.920906   73.481781
H   97.615852   87.154984   49.134335
H   48.355263   33.042969   92.346275
H   32.623707   76.158806   15.790678
H   89.262070   25.331778   16.554335
H   95.947311   10.531986   27.844193
H   16.894365   34.636925   36.978661
H   84.355804   97.172394   64.538773
H   40.362022   19.174925   65.390182
H   33.440258   74.059433    9.484164
H   79.743210   90.073921   66.021751
H   31.370033   10.231316    9.248729
H    3.311446   77.382805    3.004872
H   73.715820   52.146339   75.475761
H    7.854629    8.854150   72.784561
H   84.441048   47.669228   58.705563
H   34.887772   14.155095   58.939342
H   48.912605   26.372185   57.177006
H   51.748695   13.048874   40.880096
H   68.936096   43.858833   97.725952
H   61.603661   65.920677   39.323948
H   17.056341   88.368088   95.950127
H   82.912216   24.176472   12.952267
H   88.309776   28.953585   90.107613
H   53.921783   31.351442   45.658550
H   70.649055   29.536684   67.880669
H   39.735023   61.608658   24.704226
H   21.386730   26.287764   19.534931
H   52.769844   47.927586   38.909950
H    6.198644    5.312029   56.976021
H   48.122303   48.969067   93.726936
H   84.107391   56.655594   27.650145
H   38.205616   39.019684   11.151163
H   81.079659   75.003761   89.611877
H   59.669266   29.850372   63.277939
H    7.491068   78.956047   73.933311
H   94.251778   64.989319   14.285772
H   86.589706   52.935745   75.959633
H   95.174263   88.216530   12.630543
H   98.087204   30.980797   92.245872
H    1.901134   76.187225   73.649612
H   19.090014   38.629223   69.780800
H    7.384510   84.652267   66.136398
H   31.159954   28.663256   55.127220
H   23.690353   79.270721   59.815392
H   51.101593   20.583799   69.156479
H   11.551398   76.889824   27.746170
H   13.852307   32.440582   25.587742
H   18.058392   45.053379   85.645493
H   57.424088   29.822426   14.399549
