100
TIME:    1.390, STEP:  1390
H   23.322184   94.551315   97.873428
H   62.604866   80.109306   65.681023
H    3.647716   73.906349    7.018909
H   81.709915   75.381798   63.974354
H   82.720947   84.172157   28.015678
H    6.461865   99.702202   16.401804
H   80.119911   55.198139   99.152580
H   10.635040    8.855230   80.569084
H   19.459145   52.650589   12.591069
H   36.854012   36.341698   62.123192
H   70.960617   22.171925    5.857996
H    2.786053   93.364388   93.987770
H   54.843506   77.610374   86.974205
H   86.257195    0.791672   63.020924
H   97.407295   45.865353   83.956650
H   45.635773   90.156548   17.658676
H   12.313431   73.919907   99.912025
H   30.847992   27.105133   51.357712
H   66.910240   36.666000   36.592747
H   55.067459   76.295273   10.970255
H   81.792068   17.838165   19.517654
H   95.629997   45.934578    0.898421
H   67.185524   83.317436   92.579849
H   89.895439   53.352604    3.840073
H   79.869865   75.934700   46.817993
H   40.285465   86.191238   58.887184
H   42.217644   84.696854   27.549261
H   15.257820   21.320202   12.718040
H   41.395248   75.203735   91.466881
H   54.291821   56.437485   93.890007
H   70.780403   46.692963   99.419983
H   53.522587   14.109588   70.584816
H   68.268509   66.783257   23.019133
H   36.832573   46.337471   13.193035
H   46.221199   53.846840    9.370697
H   93.409515   93.675247   15.861463
H   13.118443   53.631691   17.991705
H    6.541098   33.513195   20.530315
H   88.231125   50.835594    8.901471
H   32.271286   82.056313   47.396839
H   40.249710    3.877532   75.092331
H    6.695915   74.242867   68.104660
H   23.213720   71.835358    1.875037
H   90.598854   36.066414   16.641203
H   36.083473   77.047440   75.056107
H   60.154583   89.428902   88.815590
H   50.757191    0.722208   39.500679
H   56.313648    9.694757   54.583248
H    5.663328   17.329910   89.026352
H   55.042538   51.906086   86.446495
H   43.438572   35.448387   68.072800
H   72.684441   34.757206   82.811081
H   37.713425   30.068420   22.140205
H   44.502331   84.526680   93.154129
H   30.102020   80.360123   12.201246
H   95.305435   11.071123   45.307922
H   84.371582   49.439217   88.187935
H   22.555363   45.619560   77.752029
H   99.904213   97.498810    4.771881
H   67.291779   34.628094   24.074669
H   47.383251   13.931212    6.021149
H   49.577332   15.007227   32.461662
H   68.516800   12.365639   38.198830
H   38.488068   49.355743   89.401344
H   87.493736   49.827618   25.008844
H   15.955210   73.172066   28.372999
H   76.046127   96.419525   34.172314
H   84.348869   97.032089   32.652637
H   26.179321   49.909790   73.055000
H   58.542885   18.055685   98.806183
H   77.893227    0.824705   45.476566
H   59.354328    5.393776   58.391953
H   16.361099   49.550152   26.106815
H   99.597404   61.419029   20.596764
H   29.189758   30.621504    6.768990
H   58.522091   96.658226    2.400903
H   93.157799    6.070771   15.629570
H   97.285049   59.833290   91.204025
H   28.178942   49.430515   33.187859
H   31.357407   33.251343    1.171531
H   38.083202   43.661846   63.065609
H   45.616436   53.305313   70.546463
H    5.747427   30.456469   62.290501
H   45.790104   31.105692   36.468849
H   84.647644   61.940269   13.007452
H   19.299221   60.113827   38.309181
H   59.989677    2.288601   89.823578
H   78.331421   94.007996   81.293983
H   84.528511   16.779387   16.827393
H   43.443932   52.088348   73.905434
H   80.907051   48.486980   62.815990
H   81.132881    0.047813   60.005531
H   74.469200   69.278549   26.449389
H   81.576729   97.546013   20.539619
H   32.561039   25.221733   48.026787
H    8.729935   40.840935   95.653442
H   52.270523   47.449627   57.248993
H   11.968753   28.072693   33.796677
H   42.495537   42.842037   28.617367
H   25.565109   43.000134   63.809029
