100
TIME:    5.365, STEP:  5365
H   54.509193   30.023499   94.234207
H   52.306618   95.584366   16.385540
H   71.977646   59.883469   60.370251
H   82.377106   11.611996   46.089554
H   47.117233    2.785891   20.237801
H   44.826389   95.395790   10.059862
H   71.789360   23.607792   10.003068
H   98.207870   52.741856   15.596868
H   21.745995   70.470490   62.380669
H   28.228258   93.416817   17.776525
H    1.215802   82.115082   22.965878
H   51.075302   92.610542   11.042711
H    1.715212   37.158775   91.928398
H   89.438469   88.539436   65.520119
H   45.757835   90.804306   92.881287
H   85.808365   42.486588   87.698944
H   92.685646   36.823559   61.785461
H   15.794526   33.775745   13.547392
H   28.830128    3.419968   46.010250
H   47.973190   91.882607   81.606789
H   45.910011   22.114433   11.629368
H   76.728119   51.206100   62.398972
H   14.113278   50.989021   78.850983
H   20.571793    1.009249    8.621083
H   37.700226   60.689468   76.161598
H   22.089624   68.057297   85.917313
H   99.448532   19.459789    6.415219
H   79.858345    6.859749   44.111938
H   27.828072   35.846439    3.566423
H    6.711716   58.055992    9.890938
H   27.201210    3.145983   84.917213
H    4.506677    4.284772    2.599139
H   48.261105   75.953545   81.118523
H    4.785029   82.052544   45.731697
H   47.412415   53.367264   51.418282
H   39.007557    5.638212    2.559300
H   94.372528    8.057060   31.206219
H   42.246288   60.774494    1.035635
H   18.613163   64.522758   24.403727
H   57.869648    9.929602   60.142467
H   68.591980   40.268547   68.742775
H   49.444847   52.642891   54.848293
H   57.452724   95.672256   88.993599
H   36.770039    2.694117    5.297746
H   91.281731   20.217117   15.207973
H    8.870729   65.245987    4.957072
H   83.648727   16.604832   76.964943
H   56.525936   50.627731    0.533756
H   21.855186   88.120728   30.461445
H   38.397923   12.390081    8.429871
H   43.135303   51.687531    9.982696
H   65.861412   65.908432   21.859329
H   20.157665   53.116821   91.278130
H   52.448502   19.667160   68.559105
H   13.625553   28.767637   45.980160
H    0.277802    6.890264    9.989548
H   36.369301   34.742104   66.243584
H   26.566334   70.229576   75.364975
H   13.403439   65.453590   99.608742
H    4.985067   40.160229   11.017220
H   98.128510   29.075096   96.098900
H    8.502825   78.005417   52.606339
H   38.290180   41.185471   65.576294
H   11.444079   70.988571   81.480453
H   45.269150   32.350124   95.187752
H   71.765587   75.563072   63.403999
H   57.124634   33.844913   26.084934
H    9.768573   24.367689   22.680624
H   24.292578   64.291649   23.748795
H   39.080147   17.985714   90.435974
H   51.670021   30.365952   97.789894
H   31.598652   73.470993   49.422539
H   57.183456   52.930122   24.189072
H   12.105824    9.868580   84.383781
H   20.839926   36.288929    8.101109
H   52.492310   51.419701   34.933247
H   54.062786   61.544651   85.931053
H   84.037781   99.915657   10.727708
H   18.784969   37.760029   77.541451
H   36.417023   16.761353   58.721680
H   15.856339   84.785049    0.642945
H   43.869293   79.263687   38.158859
H   57.224228   96.841125   40.879467
H   19.253740   71.253708   73.406555
H   91.097725   13.300254   27.675713
H   27.815395    6.118701   14.345246
H   25.470953   13.273727   79.367386
H   42.312950   75.761475   39.951012
H   67.022324   95.458076   84.312019
H   92.000366   88.544479   16.003733
H   43.580589   63.124531   46.760784
H   75.254570   98.979004   35.751770
H   29.360186   88.496925   33.888264
H   65.773659   38.661449   88.552910
H   63.833763   69.166405   39.367252
H   37.048615   83.873993   90.339539
H   36.753532   75.567101   28.643219
H   26.558058   61.917450   70.181328
H   53.136810   59.976704   95.661369
H   72.450851   40.959225   80.913452
