100
TIME:    0.845, STEP:   845
H   60.178383   44.530464   98.372391
H   77.765007   50.560528   31.302519
H   94.282715   34.696224   13.418182
H   81.618439   97.835106   93.845573
H   87.602463   40.487999   42.793282
H   14.913136    0.293981   62.429653
H    8.684700   18.395506   56.532871
H   53.470963   61.704136   30.608910
H   32.856285    5.050045   46.897820
H   51.748039   28.517231   40.780075
H   21.655182    0.243126   58.354034
H   23.588612   66.046196   32.780464
H   89.511978   10.583782   41.142708
H   13.242237    2.471938   21.544674
H   90.779411   94.545898   10.153360
H   67.548538   37.827374   62.897934
H   56.129799   37.878189   50.290215
H   19.201378   53.608353   70.251755
H   58.422295   13.801051    7.881615
H   69.776009   87.815582   73.835640
H   14.133041   72.095551   34.309486
H   43.371998   45.215240   47.305820
H   74.462059   87.749886    8.172974
H   40.531891   46.816196   44.318138
H   99.362663   19.159649   42.797188
H   42.784435    2.432036    9.971652
H   89.213516    7.350631   16.734251
H   61.241364   95.880936   94.704208
H   29.544891   25.756826   17.228733
H   33.393612   69.926102   50.563442
H   49.341648   97.818321   42.545494
H   19.110815   29.165909   21.038170
H   29.878086    6.658401   73.921227
H   13.805360   96.283607   36.152046
H   59.768028   95.044502   76.182541
H   46.024719   50.864269   17.736807
H   60.844662   73.590187   75.048042
H   29.065529   43.488285   82.070518
H   12.731672   62.469734   61.138535
H   83.603630   33.076939    4.516512
H   77.494598   85.175285   62.251797
H   55.677391   49.782974   42.499577
H   18.519316   68.567154   62.507187
H   25.400084   26.932398   63.352669
H   83.357704   98.552719   28.416739
H   67.159431   79.089165   86.631966
H   45.002491   71.324921   34.843697
H   56.284542    4.083509   20.861708
H   89.731133   62.465218   10.765979
H   43.612141   43.610836   24.564621
H   43.480152   88.063972   62.326420
H   46.197853   85.329453   18.588760
H   26.407770   26.908325   53.794563
H   57.121922   93.416527   69.104141
H   73.490051   32.581738    7.576488
H   94.623520   11.643890   63.861008
H   49.820145   65.164848   36.354057
H   63.138123   97.087532   91.789505
H   56.919289   74.471695   46.612682
H    3.258338   92.736771   39.575768
H   13.003681   39.274429   48.512199
H   68.920441   20.080215   57.122879
H   31.548382   49.531120   75.587746
H    1.063369   46.391075    4.196760
H   65.863716   93.355125   74.255028
H   49.435585    0.265723   96.148857
H   19.772787   77.575378    7.858458
H   21.996025   65.863571    6.598487
H   99.015617   89.070023    7.234615
H   47.503342   90.644188   99.953796
H   95.198906   37.908337   52.012974
H    4.293478   23.481773   18.488138
H   51.896454   76.508522   40.081921
H   11.592217   95.905960   52.987740
H    2.913568   29.846033   65.454643
H   45.636387   61.730591   39.071842
H   43.675655   53.306999    5.986082
H   71.679962   95.468010   61.107876
H    2.054220   51.027195   27.110508
H   58.085159   62.935448   48.123627
H   27.417881   38.023571   30.491776
H    4.723698   49.746048   16.119461
H   71.261238   21.360800   10.381891
H    8.297453   84.469337   86.248665
H   11.184685   96.027969   65.839195
H   31.843967   40.092960    0.462480
H   23.590368   41.914543   63.835949
H   69.557999   37.641106   86.957207
H   73.218697   47.123573   21.286869
H   91.627243   74.514496   54.420956
H   58.603428   19.059759   51.306591
H   40.808399   59.058052   49.622955
H   39.500252   52.948662   84.286156
H   28.900164   64.489754   83.792305
H   41.983112   74.040192   35.502831
H   63.715118   62.362846   23.803795
H   95.530563   16.173002   88.592148
H    9.967706   23.432343   42.516045
H   68.458214   40.492756   74.269203
H   91.718796   57.000187   16.300264
