100
TIME:    6.745, STEP:  6745
H   61.185379    3.472127   92.970779
H   14.195675   70.366814    3.398643
H   95.709030   59.166161   44.166790
H   82.608734   54.756683   70.447632
H   34.756699   13.398832   82.821060
H   23.421818   93.900734   46.726437
H   99.465546   16.791706   17.920938
H   89.742592   72.129425   88.890160
H   87.822899   37.789215   75.513908
H   90.529549   13.232834   71.811775
H   72.851562   37.642124   90.036964
H   98.401245   61.782612   12.812744
H   13.654312   53.706043   54.804375
H   21.108925   84.285896   70.538414
H   62.530769   67.536186   26.535770
H   30.322670   21.786781   73.146973
H   81.714272   28.100285   87.412300
H   45.306072   66.627365   65.707069
H   50.319706   61.316437   18.715313
H   10.796829   62.571598   75.563591
H   64.018860   84.731232   74.170387
H    9.030060   53.038071   44.879211
H   95.686729   39.765572   39.368866
H   92.350105   17.518038    6.130620
H   88.344917   51.248497   86.353249
H   15.798807   27.260155   56.146843
H   80.450432   62.097443   33.799168
H   63.417183   71.273506   89.726273
H   57.834480   61.051098   38.331665
H   59.626225   23.901329   19.596657
H   81.514214   26.893093   75.736076
H   91.640778   66.151352   74.845634
H   45.466137   74.986183    5.439824
H   63.094170   55.583694   87.595718
H   13.091711   48.978889   35.422745
H   58.968884   13.725928   98.220253
H   26.732601   57.519165   39.944859
H   85.209099   35.516468   98.418358
H   60.365704   34.453178   90.671997
H   27.890163   80.739273   68.718063
H   74.278778   87.620750    1.254897
H   31.782211   68.053665   24.304665
H   69.334747    3.949201   88.672661
H   48.651798   25.857260   40.225967
H   71.576180   65.766556   33.298527
H   91.059502   91.567398   10.563532
H   94.429977   91.653519   90.209877
H   56.599636   64.841293   85.920319
H   62.190117   73.828468   75.414474
H   67.351807   33.396648   11.921136
H   43.038448   18.457335   24.528996
H   32.933170   37.853714   31.269112
H   48.784832   61.118530   11.129122
H   20.494308   97.149750   29.453789
H    3.747591   49.704941   57.719509
H    1.996649    5.438638   63.011078
H   23.855951   94.922081   97.492973
H   23.808924   39.905785   39.820541
H   22.241135   23.764347   93.670006
H   13.919151   46.231861   71.766747
H   85.180138   64.896011   88.502853
H   59.524696   65.160568   90.163620
H   31.978117   47.016640   70.945557
H    6.206285   78.505966   44.014202
H    0.042348   22.131924   23.701689
H   86.991547    6.959293   45.000885
H   46.404800   81.553711   92.710159
H   14.442636    3.290511   88.652603
H   93.071236   65.133652   37.198307
H   67.034630   87.395927   87.530090
H    7.847718   36.471771   81.238991
H   17.811312   27.671738   50.459778
H   67.204559   84.671341   88.805969
H   81.724495   22.528744    2.389133
H   87.374504   38.257771   12.714668
H   85.113518   39.864094   42.076309
H   79.372650   42.004185   10.365118
H   48.872692    9.680822   86.940636
H   84.960335   33.706532   92.934212
H   68.743912   41.587959   39.833336
H   42.862091   99.061783   83.122177
H   47.435837   88.213104   22.718086
H   44.512093   19.918249   72.303680
H   14.195291   89.343163   47.365063
H   23.903791   26.981316   93.900368
H   96.052353   56.811050   10.176538
H   17.638094   12.936267   45.171043
H   64.507164   65.333313   25.642693
H   95.660019   18.621531   73.025398
H   69.990891   31.768482   65.332047
H    0.055810   37.642418   75.903854
H   77.360596    2.768183   62.041595
H   17.820820   29.902790   40.605782
H   99.145485   22.384119   81.604019
H   39.976036   45.554108   71.079285
H   51.030945   29.378397   19.061157
H   27.215738   54.761368   49.278366
H   25.257914   20.202267   43.475296
H   87.396935   65.928749   80.072975
H   58.167744    5.547821   47.973713
