100
TIME:    7.518, STEP:  7518
H    8.910847   32.584023   92.263077
H   92.848404   12.252448   52.139996
H    8.998491   14.779033   35.090504
H   82.738480   22.909222   28.075108
H   27.831232   75.358192   61.861267
H   11.432717   93.063286   23.278519
H   58.950306   68.990112   78.370544
H   28.986320   39.004177   17.915550
H   68.821083   63.468338   26.855160
H   69.416420   24.332338    2.078025
H    0.948988   68.745651   15.578039
H   68.901840    0.529310   57.789467
H   64.351814    6.931664   77.988121
H   82.835045   81.903297   29.363216
H   71.919624   98.488022   89.361847
H   99.239990   54.177246    8.981037
H   19.554390   79.227661   57.781551
H   61.836826   29.012970   38.914253
H   62.356548   93.741501   59.437702
H   89.969833   46.158794   28.192972
H   18.147934    7.776057   53.190044
H   83.138321   54.064240   79.051147
H   85.366066   33.478813   17.251192
H   20.526983   26.765352   48.722168
H   60.697334   89.944717   92.062050
H   12.159328    4.472229   83.405525
H   13.793001   29.962034   49.138622
H   98.195244    7.354515   15.276980
H   74.642418   31.183435    1.792934
H   89.267166    4.768902   81.048241
H   11.935328   96.209625   14.578773
H   40.448299   44.795834    3.285151
H   99.914070   18.429655   75.077766
H   95.754646   84.742928   55.029602
H   93.853279   90.451958   82.453171
H   26.164368   74.270721   95.790474
H    0.873447   29.210768    0.854445
H   53.258308   21.368313   52.964821
H   27.734715   17.612375   15.762314
H   55.081238    8.372951   29.534742
H   21.449366   14.144841   19.465300
H   66.637840   71.084991   63.765560
H   75.987152    8.586132   44.506123
H   99.294968   38.831810   15.805892
H    4.525379   35.270130   99.445137
H   81.080894    6.310179   13.703962
H    0.469323   33.693184   97.628960
H   56.646481   72.802948   33.748760
H   84.788948    9.809963   44.578514
H   83.581787   45.162205   57.874702
H   42.985371   43.829422   32.676666
H   70.503311   66.125076   80.526825
H   64.819893   65.600647   66.236427
H    2.595329   84.540848   63.564835
H   42.200912   17.446228   64.294983
H    2.959419    4.625517   36.696335
H   72.859528   72.617653   71.011787
H   66.249924   66.905037   19.908716
H   83.201958   56.430721   34.329140
H   62.906921    5.645771   49.780785
H   33.942303   28.950218   28.233681
H   32.089424   57.965591   55.189827
H   84.457863   94.267853   17.938629
H   59.288471   82.716797   23.024921
H   30.724396   60.395161   95.687187
H   39.504700   68.531303   90.706680
H   84.385010    8.280123   30.031931
H   61.046074   47.500175   25.606476
H   31.598190    9.590790   88.716614
H   82.711433   26.254404   85.898041
H   83.301567   83.877228   71.968086
H   54.177753    1.972169    7.113172
H   16.803446   46.440891   68.990295
H   64.704247   73.604370   56.459351
H   24.620489   39.385044   71.321533
H    3.384932   89.406151   90.063484
H   49.577839   75.099068   24.073908
H   85.189636   59.137836   29.630541
H   22.029173   31.435986    1.557217
H   30.834732   99.477837   73.238808
H   57.992226    7.059518   29.323486
H    5.441832   93.225998   58.047520
H   93.404900   32.845615   45.919922
H   67.374611   55.490841   76.763634
H   86.265732   78.624474   18.966967
H   78.265427   85.203217   63.855942
H   69.265007   56.732628   82.030556
H   76.939140    3.475691   17.627960
H   11.703061   75.582176   66.703255
H    1.646037   99.963150   92.967834
H   31.690266   79.381355   92.228195
H   34.554768   60.904739   76.772820
H   67.371796   53.097744    0.383064
H   73.851265   69.281212   33.725918
H   26.611061   76.313400   88.842621
H   14.877608   98.855042   79.134346
H   65.858849   99.122528    4.821412
H   23.765841   58.448605   27.958147
H   50.572807   69.266747   15.325542
H    6.184057   85.709579   73.508057
