100
TIME:    9.799, STEP:  9799
H   54.655426   23.406708   90.174759
H   29.851112   35.857830   95.962822
H   48.206661   78.883430    8.314276
H   83.121338   28.932508    3.045230
H    7.391821   58.190048    0.015645
H   76.066284   90.592110   49.173988
H   39.404377   23.013315   56.747738
H   49.704224   36.339748    8.481464
H   12.749748   44.158112   83.275673
H    7.111460   57.084126   91.391212
H   88.775848   60.525101   95.857765
H   81.840996   14.863535   95.425987
H   18.900085   68.867287   51.309692
H   69.893707   74.872627    2.947383
H   99.624641   94.737854   79.665550
H    7.525719   54.672592   19.638165
H   36.129799   30.098503   65.429977
H   10.613029   18.019356   59.843277
H   97.891953   89.432724   79.617676
H   28.513729   97.720673   83.494102
H   82.789673   80.696907   91.280777
H    1.820023   57.092300   84.802933
H   54.911430   14.935349   51.990021
H    8.589108   54.052704   79.315857
H   79.116318    9.050133    8.903408
H    1.401457   37.228989   68.753136
H   17.099880   35.143764   94.391220
H    5.730970   13.823903   90.674614
H   24.241100   38.133640   93.968674
H   76.730446   48.314346   62.380928
H    1.706779    0.751608   34.113403
H   84.472244   81.774979   92.121590
H   60.587074   51.540695   80.568260
H   92.132690   75.702843   58.934929
H   37.085838   17.748146   21.231756
H   24.447416   52.934635   88.620583
H   19.650936   45.675056   80.588272
H   58.979267   79.629417   13.929931
H   31.452938   67.913475   94.716911
H   40.237156   94.832809    8.999169
H   65.559204   92.410873   73.204674
H   74.407326   80.033371   80.209465
H   95.617340   22.270958    9.265282
H   53.652851   77.125099   38.827137
H    6.648428   45.260319   94.630905
H   51.642921   49.811749   22.970873
H   18.302570   57.745152   19.532396
H   56.785702   96.296524   74.883774
H   51.462715   20.897442   53.589287
H   31.463888   79.888451   98.386360
H   45.844395   23.839958   52.092743
H   81.360229   54.465248   30.792875
H   12.123566   78.826660   33.761497
H   49.766441   47.326187   64.219002
H   60.583992   17.342085   83.681534
H    5.800402    2.226127   59.045700
H   17.466644    6.800266   87.953819
H   96.402542   51.492607   61.155540
H   63.107143   52.814781   59.216846
H   12.386686   80.972092   84.903725
H   77.832733   22.872698   50.395618
H   51.132256   36.734360   51.982841
H   39.332005   38.644836   61.536545
H   15.919485   95.142288   61.099861
H   21.261326   78.213387    8.106528
H   99.382141   55.136253   25.578211
H    1.375863   87.138824   40.158459
H    3.481709   77.952461   34.651474
H   45.283691   45.692688   45.657284
H   29.037567   40.822117   81.060104
H   10.861206   28.672421   44.611122
H   66.342247   26.235741   74.307648
H   68.079269   33.611645   10.501347
H   14.497364   29.241917   20.930162
H   34.497704   42.743755   44.268299
H   57.314896   35.596592   36.581039
H   56.741158   77.672287   64.533134
H   92.346870    9.996895   55.613426
H   31.411070   24.735966   27.014833
H   18.973419   75.221107   76.728676
H    2.647184   30.657511   65.656319
H   76.604271    8.026505   67.218437
H   37.681656   70.992226   63.151257
H   24.305019   50.681107   68.429314
H   75.202026   35.933525   97.851242
H   25.766361   68.989540   22.255680
H   21.607973   90.884712   90.797234
H   13.622692   20.951719   93.982132
H   59.041996   48.579323   48.047615
H   99.975098    6.117332   74.505753
H   25.038778    2.548514   40.399071
H    3.325670   32.457458   20.236841
H   13.588195   21.533155   76.776299
H   91.282265    7.437922   92.163506
H   87.171204   71.995552   41.255409
H    3.278814    8.780827   61.317825
H   84.804008   30.022194   73.638489
H   19.362970   71.313797   82.159691
H   41.911156   79.116646   24.268452
H   47.864243   27.177303   53.771847
