100
TIME:    6.331, STEP:  6331
H   89.182938   41.437157   93.349808
H   25.628117   47.932392   77.295998
H   88.589615   29.380989   49.027828
H   82.539246   71.812958   93.138794
H   38.464859   80.214996   94.046616
H   29.843189   94.349251    5.726058
H   21.162941   88.836815   85.545525
H   22.282181   36.313694   26.902287
H   97.999809   77.593506    1.572247
H    1.837471    7.287664   55.601994
H   11.360825   20.983831   29.915863
H   14.203217   41.030811   42.281166
H   40.072586   78.742165   95.941582
H   41.607201   85.561958   39.032337
H   57.502327    4.516693   46.444233
H   46.968491   57.996620    7.512462
H   15.005874    0.718225   49.724251
H   36.452602   86.772720   80.059608
H   43.873066   43.947464   96.904831
H   21.949738   71.364540   47.376518
H   88.586212   25.946178   85.408577
H   69.339478   52.488480   80.135162
H    1.214344   43.132607   51.213501
H   30.816452   12.565401   36.878193
H    3.152093   84.079895   83.295753
H   17.686052   39.499611   95.078728
H   16.149315   79.305679   25.583731
H   98.350906   51.949379   76.043350
H   48.832558   23.489750   57.902161
H   43.751255   34.147728   86.685226
H   65.222313   89.768684    8.490364
H   65.500458   77.591690   13.171638
H   16.303917    5.276650   68.143433
H   45.602013   93.524429    5.036960
H   23.395187   80.324532   10.233336
H   22.980539   81.299644   99.521584
H   87.024208   72.680298    7.323367
H    2.321920   43.093876   69.201591
H   77.839569   43.474052   30.790995
H   66.883102   19.496037   36.144192
H    2.573132   73.413506   91.501320
H   66.671768   66.430161    3.169182
H   65.771881    1.465600   58.767876
H   75.087189   18.908407   99.747887
H    7.488777   82.102676   97.870590
H   96.403801   83.670975    8.881594
H   91.195602   69.139236   86.236397
H   56.577526   60.577225   60.304325
H   50.089638    8.117210   91.927475
H   58.661366   27.094072   40.868439
H   43.066875   58.426407   20.165432
H   12.808544   76.270386   58.445442
H   40.196682   58.718018   35.173939
H   30.080566    3.904155   11.186202
H   36.711723   13.423207   54.197704
H    1.481012    5.874125   77.104614
H   97.610634    6.868178   58.118248
H   54.636139   79.002556   50.483871
H   89.589615    6.269471   25.451851
H   41.237679   14.409276   83.541893
H   59.065083   84.150650   20.781780
H   74.218361   69.014023    8.895198
H    3.871531   75.266884   99.334778
H   77.778732   76.250748   55.255550
H   83.611465   55.198513   85.147224
H   12.423603   27.540184   20.521971
H   79.620316   67.239075   72.722733
H   43.040367   79.613686   68.861008
H   72.439461   94.881058   63.164906
H   58.647484   66.574638   88.401855
H   20.994778   64.639893   86.204262
H   51.946629   41.411514   20.147606
H   94.197693    5.150444   99.418762
H   90.840126   48.729649   26.986582
H   67.412346   37.667118   81.330582
H   75.328270   13.330063   69.932404
H   41.773037   77.836937    3.022756
H   29.422222   36.751617   64.078911
H   65.105568   34.922581   88.316383
H   89.047195   64.140144   75.499901
H   34.760361   94.778763   58.377949
H   16.370512   85.528320   57.352222
H   18.324394   12.995008   32.875923
H   85.712105   53.916649   85.178062
H   44.062416   52.878426   34.032852
H    5.580221   41.602539   81.426987
H   89.987892   43.037514   25.429983
H   57.848900   98.460388   29.935188
H   87.068710   41.671852   76.411385
H    6.592801   48.802647   50.533867
H   83.113243   15.288044   67.160934
H   46.728786   71.631104   54.154648
H   91.282883   17.480137    8.590526
H   59.133114   97.267647   53.688583
H   47.133354   82.637283   61.565678
H   16.836273   45.726898   40.444672
H   60.077263   31.002676   73.087662
H   26.057032   99.717468   51.785492
H    7.118899   64.140999   14.749077
H   32.453831   16.171577   87.855080
