100
TIME:    5.908, STEP:  5908
H   17.788561   80.228508   93.737076
H   37.309822   25.009352   50.624516
H   81.315430   98.949707   53.994541
H   82.468246   89.240021   16.324905
H   42.253632   46.309677    5.515760
H   36.404156   94.807518   63.836315
H   43.331600   60.275372   52.466373
H   55.529144   99.719772   65.741905
H    8.398018   18.263412   28.198977
H   13.392580    1.213593   39.039829
H   50.707260    3.963875   70.660301
H   30.349068   19.827885   72.391258
H   67.065170    4.321503   37.973076
H   62.551949   86.865761    6.840680
H   52.361397   42.300858   66.781891
H   63.976013   94.993629   42.625702
H   49.020943   72.738167   11.216894
H   27.406668    7.355423   94.724159
H   37.286282   26.200907   74.617554
H   33.345100   80.349159   18.576685
H   13.687614   68.058044   96.891075
H   28.786057   51.926941   16.157471
H    6.862492   46.572838   63.315628
H   70.120384    7.505099   68.294876
H   18.280426   17.625465   80.171791
H   19.614325   52.005142   34.856003
H   52.626038   96.887650   17.189695
H   34.042118   32.205162   62.062523
H   39.634941   85.112152   77.898102
H   27.531624   44.616875   53.057449
H   48.573250   51.836811   41.956779
H   38.791874   89.280731   52.330894
H   86.508781   36.224464   30.036253
H   27.729206   32.289696   22.856199
H   33.915298   12.319885   84.484222
H   86.210175   48.168861    0.851624
H   46.452820   88.171021   73.992653
H   19.804848   50.836010   39.352345
H   95.692627   52.691032   71.783272
H    6.726236   59.096912    2.863142
H   31.481155   58.898544   81.535622
H    2.319840   64.771362   81.572807
H   62.129902   98.928467   28.215454
H    2.098928   11.808493   58.388092
H   44.180279   98.793930   61.673931
H    1.863626   75.602890    7.163092
H   87.890915   46.135513   82.176537
H   56.554935   56.220459   34.131458
H   37.726105   43.148834    8.800673
H   49.786373   20.654890   70.449875
H   43.095921   99.263824   15.706956
H   92.250801   15.520863   86.212563
H   31.421833   56.265320   59.742870
H   39.875221   10.806401   92.520836
H   70.391136   76.354324   50.599339
H    0.954162    6.319080   91.504532
H   70.792320   19.074181   17.887550
H   86.133942   18.949949   61.379013
H   56.227226   88.396202   57.924278
H   69.150620   81.896774   95.573021
H   32.382313    3.823395   53.760883
H   89.231453   72.951248   28.035622
H   75.155357    4.131388   28.341156
H   48.731934   73.946503   66.740509
H   66.823395   88.982040   45.755604
H   38.408073   48.568840   95.510399
H   13.558479   52.615765   52.300797
H   72.259743   55.422337   48.639164
H   51.357235   25.275124   89.692871
H   50.079178   45.297874   89.292572
H   34.427849   93.420364   91.277473
H   86.825455   55.449982   89.177994
H   21.778820   26.072601   10.265251
H    0.153875   75.500938   52.119957
H   47.018917   37.063625   49.264786
H   65.330299   86.220390   98.396606
H    3.362643   14.479513   95.533974
H    9.548915   64.412193   40.716972
H   44.822224   36.165066   83.598167
H    9.791346   87.182594   11.941630
H   26.482508   90.402634   33.095798
H   84.623734   82.785034   92.736443
H   91.568535    5.921599   92.591263
H   56.609726   17.719357   23.812778
H   64.658623   79.336647   75.038086
H   15.316685   26.064026   52.052704
H   61.736687   73.793053    5.259717
H   51.045891   32.309170   34.320999
H   78.290634   65.224205   79.870979
H   43.992321   66.206711   35.414276
H   65.802361   92.446869   58.227947
H   15.431070   39.817032   46.096245
H   64.167664    4.787427   75.879288
H   18.253201   71.604683   25.166292
H   54.446266   20.526684   51.845249
H   81.898148   62.431061   62.293045
H   93.653404    6.728728   97.414551
H   26.873522   78.785629   60.276344
H   27.269409   62.317364   50.180878
H    6.180616   27.026379   28.604145
