200
TIME:    0.130, STEP:   130
H    6.091067   62.840061   13.458645
H   26.983850   31.272198   85.431618
H   20.443275   64.323471   39.930107
H   14.134616   75.688057   47.376167
H   16.378075   80.941315   55.240036
H   93.197083   55.800568   68.805656
H    1.765554   55.382179   47.522228
H    0.423582   84.136322   28.976864
H   82.961235   89.155319   50.402866
H   14.733425   76.439720    0.411265
H    8.359533   92.244331   89.485565
H   30.322937   39.086784    7.500954
H    8.474360   83.357216   65.800041
H    9.603153   52.742840   36.965206
H   24.932749   71.097801   43.249245
H   32.506680   30.498646   56.695938
H   79.032700    2.566702   20.772720
H   39.174294   77.879028   45.478718
H   61.365528   33.684200   40.864532
H   89.706291   81.215294   41.734867
H   56.764961   71.267151   30.880070
H   92.477913   44.609810   74.813660
H   98.299202   63.341248   51.775597
H    6.292068   87.078072   91.933403
H   98.465309    8.279844   49.335445
H   18.752150   57.454876   10.589590
H   96.765785   56.589573   44.659103
H   91.985870   65.591698    0.441834
H    6.435623   59.873238   38.982475
H   98.020203   17.817587    2.430890
H   13.505106   46.853611   16.060326
H   33.926365   60.928207   90.894920
H   29.781151    6.618586   71.835541
H    0.067161   63.457909   36.367615
H   53.267216   94.346298   35.055805
H   36.654434   52.430000   78.215111
H   83.107269   76.803192   85.129128
H   38.356075   41.909893   20.113255
H   57.141373   50.339558   41.986526
H   91.137665   40.140835   67.993256
H   80.471581   10.362247   97.872925
H    7.864154   45.413521   43.092819
H   78.682449   90.308861   46.243732
H   37.526321   57.891815   14.814219
H   25.018709   72.939056   40.394341
H   42.607758   16.701252   41.491550
H   77.901245   31.601318   93.767052
H   92.793816   65.552284   51.602127
H   82.826294   32.926510   61.087025
H   66.053604   17.305098   10.366264
H   80.824966   71.888405   32.228130
H   25.343096   33.804668   61.176262
H   49.210495   97.570198    6.489097
H   24.043728   79.862381   80.074211
H   81.854965   78.831299   94.330864
H    6.715776   75.059944   75.046234
H    5.744410   16.329201   50.834553
H   66.206894   56.022251    7.288804
H   30.502272   72.352524    4.466011
H   45.647427   96.606850   69.027695
H   50.775772   17.522535   45.450348
H   87.960297   16.164301   48.223171
H   68.416840   22.927740   88.596008
H   21.460842   64.995399    1.211540
H   69.580109   74.439209   13.431461
H   43.054619   12.287630   30.886063
H   90.284035   25.482258   83.562477
H   97.957420   91.199837   85.093742
H   12.609861    4.366755   63.372093
H   45.870167   39.712757   50.988468
H   58.513420   74.689590   70.338989
H   35.231808   26.713202   45.534824
H   74.002579   23.761395    3.178972
H    4.281732   11.382524   57.370533
H   77.805618   99.090828   72.784912
H   50.533379   22.960155   63.596275
H   95.892517   25.855158   73.701515
H   30.629509    3.966897   51.728981
H   10.694263   24.792513   37.374752
H   69.933578   91.280426   99.478302
H   38.699444   31.961161    2.766403
H   21.799747   70.568321   91.257805
H   11.428876   12.459693   93.498177
H   28.261160   58.262642   90.266327
H   42.825340   98.160675   60.899529
H   21.568134   89.623047   30.072670
H   30.925142    2.554893    1.519147
H   76.246254   22.638334    7.293238
H   62.323235   71.777077   76.766014
H   23.995087   81.116661   56.075680
H   45.853897   33.943203   81.243759
H   84.821648   87.570343   95.967636
H   42.034206   18.102695   98.862686
H   64.960541   98.385597   66.084267
H   22.337597   58.414162   63.358406
H   73.827431   25.249924   34.233578
H   77.813438   18.083838   93.591751
H    9.918661   26.729401   47.552082
H   39.510429   70.879944   52.491425
H   65.291817   96.139816   27.223551
H    4.958483   77.385010   63.760025
H   86.481880   74.992371   66.471367
H   20.899199   41.189880   28.965576
H   16.590200   67.736389   85.794159
H   25.484556   28.918312   21.521214
H   83.068321   32.158459   49.040726
H   60.447506   28.730928   56.771164
H   65.399086   30.050934   22.995050
H   70.001076   41.478165   93.813530
H    0.833160   29.594088    4.998896
H   45.747284   97.022667    0.718458
H   81.577072   60.578766   89.258186
H   59.004555   78.998184   96.328026
H   63.596794   21.768810   77.790588
H   67.521065   77.388031   30.629566
H   18.527599    9.015352   73.972000
H   37.097569    6.893763   82.897751
H   41.329205   21.582165   36.177299
H   14.684848   53.583744   88.976212
H   67.879723   44.479427   45.239326
H   39.406502   21.028461   91.124336
H   23.035381   30.085850   44.952499
H   29.584417   26.461849   20.766001
H    5.697976   71.277489   22.682194
H   80.207848   11.675618   96.451210
H   43.692348   59.342518   27.655275
H   98.120857   48.676315   75.302963
H   77.834755   86.707237   34.073544
H   91.114037   56.465412   87.397057
H   62.413544   24.670719   64.627602
H   44.168571   89.113312   99.207642
H   85.922188   84.960373    6.732941
H   92.796944   77.242943   96.556900
H    6.314441   10.182608   48.352989
H   98.992004    3.359073   61.471588
H   65.287842    1.768025   85.302162
H   68.710602   86.284218   49.862663
H   90.280083   67.655067   84.936424
H   43.438019   42.795319   71.576103
H   43.388359   14.365666   98.513977
H   45.171871   66.303787   11.356734
H   62.302231   37.668579   43.682613
H   58.541611   54.736340    3.094424
H   62.753517   30.509647   76.301613
H   35.131420   73.415222   45.471592
H   41.909714   60.080322   35.114456
H   42.129631   97.259514   48.069515
H   45.656059   77.513313   69.456078
H   62.244602   69.384567   99.037979
H    5.941776   87.452728   94.111015
H   80.097481   59.441814   52.174618
H   29.157026   10.153376   51.599480
H   71.065659   35.951672    7.326281
H    7.002053   98.617645   78.670799
H    9.250622   50.974033   58.762970
H   60.236641   43.256153   50.676750
H   58.159832   57.584980   79.453293
H   44.482155   38.424805    7.147039
H   17.416288    2.148808    6.684167
H   64.912621   61.432037   74.019730
H   52.875435   88.878304   86.340614
H   48.768749   23.626350   36.496925
H   60.484402   39.365746   37.277790
H    7.237022   16.948193   75.905212
H   60.007423   18.355871    8.743717
H   10.018497   67.938850   62.903133
H   76.793983   99.346138   51.055584
H   23.536121   25.927795   43.464069
H   92.578285   28.527933   37.116676
H   21.453079   11.289821   91.642059
H   81.466431    4.325664   35.985306
H   49.962990   69.532501   57.120323
H   35.547585   82.180801   93.519119
H   72.577171   77.181152   71.696060
H   76.550476   95.864029    4.403298
H   97.511047   47.066673   23.181211
H   36.547771   49.484909   82.306450
H    0.755099    9.095955   63.473644
H   78.414680   23.936708   70.421387
H   91.533150   53.275139   84.833260
H   83.426102   81.247536   44.276863
H   17.008944   29.971767   65.600433
H   70.699081   90.279892    3.892902
H   49.085747   25.016615   73.143501
H   84.100464   93.105423   78.850021
H   96.957573   35.295578   83.403664
H   27.521975    6.408803   96.828018
H   95.705704   62.565258   21.677612
H    9.803898   60.682873   65.286240
H   47.613258   58.871685   64.313248
H   42.565411   34.663681   80.086983
H   48.554672   81.939850   26.025488
H    1.657119   14.907084   55.286415
H   37.025410   59.140633   31.096361
H   88.669479   59.168629   22.176105
H   75.059586   10.113527   31.073425
H    8.730098   82.559990   99.753983
H   32.106346   99.592384   50.068939
H   13.380185   11.304106   82.936653
H    9.155073   38.719357   99.277039
