100
TIME:    3.359, STEP:  3359
H   90.167145   13.983829   96.070755
H    7.833086   86.864502   89.884750
H   37.492920   15.563956   83.911034
H   82.040405   94.258537   56.046070
H   65.084793   41.996166   74.628571
H   75.934700   97.569038   11.398687
H   76.924294   88.153175   53.131111
H   55.875519   79.197800   99.781013
H   71.057304   63.339233   88.649834
H   83.048683   64.613625   39.225365
H   87.809036    1.399371   16.193941
H   27.636818   92.060150   53.831551
H   29.596764   58.483231   91.271843
H   88.763222   94.722481   12.860874
H   21.359020   69.987930   89.308174
H   66.466324   17.938812   54.215187
H   53.996376    4.143346   79.171371
H   72.922203   31.352623   83.092957
H   97.585732   19.266787   40.326900
H    2.023796   34.483860   45.028954
H   64.948898   21.818085   66.071152
H   84.410950   48.543106   33.228378
H   40.896538   67.303688   36.246307
H    6.954045   76.967621   57.605991
H    9.447484   19.773514   61.346779
H   31.256456   27.522989   74.331413
H   72.429260    2.846435   66.621193
H   49.118771   13.226456   77.803307
H   84.208740   53.846603   98.391304
H   29.791573    7.704576   50.419220
H   48.253834   23.263830   43.625557
H   77.846565   59.703285   88.304619
H    6.960367   22.721668    0.402199
H   20.027042   65.890450   30.240913
H   97.274689    5.005429   29.268021
H   64.607430   48.352573    9.092286
H    1.971226   81.521469   73.141411
H   25.158485   97.476189   59.475582
H    3.286708    8.231153   18.800142
H   46.812885   97.724487    2.312960
H    5.688354   71.437378   21.482283
H   29.733391   62.614037   60.609772
H   40.173870   83.642868   44.097462
H   64.864182   69.068054    9.159518
H   65.286186   99.363861   43.549862
H   34.751911   26.984577   96.807442
H   67.976852    7.511133   57.706802
H   56.418804   29.967321   76.413826
H   63.213753   54.256325   10.481439
H   96.327019   81.866570   48.730824
H   43.288349   45.353989   88.833588
H   68.373840   52.049629   53.550838
H   78.553642   41.485352    7.783352
H   98.909355   52.403625   80.040253
H   73.344589   52.958664   28.916952
H   97.769089    9.001287   78.278519
H    9.198649   92.623970   75.456261
H   75.938225   59.671585   27.036083
H   55.193047   80.694397   53.611675
H   37.359192   85.971786   68.072639
H   71.588905   22.363743   52.500927
H   79.697136   96.676987   43.371109
H    2.102340   78.070854    3.133768
H   73.696831   60.066628   35.944195
H   65.648994   92.566017    8.377942
H   94.996620   75.287025   44.794098
H   18.069687   64.489227   29.235479
H   48.336723    9.641654   26.782225
H   24.313858    8.430000   49.562794
H   98.440002   17.090204   94.660034
H   15.368546   66.853416   21.855099
H   97.002670   40.046555    2.551537
H   87.978058   52.155170   75.624260
H   56.269848   36.815140    3.574415
H   24.122885   33.426975   56.033115
H    5.064227   22.852663   69.910400
H   71.931099   35.410706   50.455067
H   89.792252   31.083380   99.943665
H   22.589529   43.652287   55.160133
H   34.793739   26.014980   31.540268
H   76.610428   64.032059   80.748566
H   93.353485   66.164383    5.899664
H   30.322760   63.324860   49.828007
H   81.243561   99.595551   56.623268
H   88.773468   38.777454   22.134926
H   73.985962   32.435333   75.042313
H   91.494728   59.126259   83.713333
H   10.026052   36.364578   60.810120
H   25.392693    7.148838    0.718751
H   69.358612   71.078568   44.293098
H   61.486725   54.806881    4.397744
H   26.824850   48.121002   97.529579
H    0.773119   28.303595   78.761070
H   71.888527   16.980415   53.297913
H   98.513908   48.851460   93.273888
H   71.361206   63.087959   93.952034
H   95.981079   60.446697   44.010628
H   19.196562   44.837555    2.289511
H   48.698357   51.329624   63.686501
H   47.850552   92.436928   74.157135
