100
TIME:    8.104, STEP:  8104
H   69.281731   78.845787   91.726578
H   76.664017   44.008587   89.088333
H   19.071260   56.938004   28.211136
H   82.836838   98.764641   95.954292
H   22.580248   22.328587   45.971954
H    2.344647   92.428429   81.312630
H   28.239933    8.557849   24.196522
H   82.927872   89.701134   64.112480
H   54.416084    7.126178   89.969131
H   53.410866   32.746433   25.024414
H   46.440689   92.324783   59.130424
H   46.535278   29.902050   16.077522
H   26.984657   71.460800   19.754080
H   53.819389   80.097084   73.958702
H   79.037178   46.143600   61.178215
H   75.678741    2.923420   60.338165
H   72.431526   17.987995   11.127446
H   74.364853    0.498514   18.601818
H   71.485168   18.325253   90.312561
H   74.178879   33.716488   68.090614
H   83.373878   49.439068   37.287319
H   39.318714   54.842163   29.147797
H   77.542122   28.714457    0.484395
H   66.080414   33.775604    5.199821
H   39.738106   43.472984   96.389809
H    9.396358   87.197556   28.259621
H   63.263039    5.602321   60.767239
H   48.749298   34.707020   34.647179
H   87.384270   84.350449   74.091820
H   11.736902   90.265182   27.632992
H   34.998569   48.756645   68.216393
H   77.448845   28.606976   49.036186
H   41.191883   75.555305   27.869276
H   20.515213   31.039375   30.341856
H   79.269447   46.083488   18.105391
H   77.104691   20.169218   93.948494
H   57.077358    7.748571   47.028774
H   29.039574   10.643362   94.318764
H    2.998126    4.845934   58.974449
H   99.887619   53.514557   75.641113
H   81.400803   34.250145   33.271206
H   17.253105   73.382996   93.684288
H   81.030243   12.101318   86.833839
H   61.874897   48.668121   73.100861
H   53.693138   12.151310   49.591423
H   73.516258   17.485092   16.084677
H    5.050241   65.561226    3.255352
H   56.682247   78.838562   70.007149
H    1.920701   61.275772   21.201603
H   95.885498   54.081501   16.900414
H   42.945133   87.254341   38.855347
H   98.982468   11.747435   42.059845
H   76.971596   68.998474   32.204506
H   89.022766   74.982224   89.424088
H   95.541939   68.801544   69.275482
H    3.689281    4.009102   16.747513
H   10.011157   55.708992   26.745399
H   22.615152   11.564337    4.813804
H   29.419556   81.191521   89.342102
H   24.238754   50.689304   33.113548
H   70.907089    1.698889   82.544228
H   11.291145   52.511185   28.673645
H   24.240719   54.280792   77.754852
H   99.526421   85.908966    7.113848
H   53.985977   13.590954   50.259384
H    3.507381   39.399406   25.356083
H   37.369812   28.539242   58.323467
H   20.567223   81.013481   53.620667
H   60.806091   67.484581   51.964966
H   94.612770   55.685848   84.655151
H   64.693993   44.005890   64.939949
H    5.923162   82.515038   50.065464
H   78.594986   17.455408   53.965206
H   51.805676   36.517719   21.641230
H   52.848694   40.247913   15.752224
H   17.239176   26.962803   50.632324
H    2.798631   24.378532   34.466873
H   12.719594   20.822628   61.994846
H   50.128311   29.714718    8.096926
H    2.098059   67.556145   22.754250
H   69.464363   13.121957   64.347931
H   49.413513   97.026199    9.023872
H   30.470163   42.645664    1.726332
H    7.692082    5.635750   23.242321
H   57.732925   41.966396   62.161095
H   64.781418    6.726470    4.549491
H    8.402696   14.125614    9.973335
H   86.363640   56.584801   11.552109
H   23.865940   42.954094   61.910530
H   49.836788   75.856461   13.916098
H   55.671772   11.024661    4.603628
H   77.912834    4.977964   87.940941
H    4.935591   70.679802   45.699341
H   30.486399    4.833169   73.239067
H   16.477936   23.822487    2.308551
H   63.278763   75.714050   48.866859
H   19.344992   32.750481   71.120171
H   22.634722   87.445518   16.193171
H   22.656975   71.797234   66.243446
H   42.581348   70.669724   17.055698
