100
TIME:    0.673, STEP:   673
H   71.810219   60.303780   98.529861
H   82.549492   41.234325   20.452787
H   91.327515   22.322166   15.437744
H   81.589569    4.921740    3.273133
H   89.143051   26.701439   47.457039
H   17.580296    0.481173   45.395260
H   17.698975    6.780973   43.082249
H   66.989822   46.824467   46.401909
H   37.084373   21.587311   57.725243
H   56.448540   26.048222   34.044266
H   37.654205   93.322296   74.922127
H   30.153828   57.424675   45.023811
H    0.453529   20.990143   58.237465
H   21.758671    3.002254    8.454922
H   88.687675    9.909221   18.421461
H   74.464127   52.872387   77.175278
H   69.958351   26.503555   34.629753
H   15.525792   61.972672   76.214645
H   55.743980    6.584989   98.820206
H   74.431892   91.421661   62.101448
H   24.339767   89.217865   38.977180
H   26.879566   44.988220   61.951908
H   76.758507   89.148750   13.094261
H   56.512543   44.753330   57.092949
H    5.514120   32.800549   41.528236
H   43.573101    7.556862   26.093248
H    4.044828   14.500770   13.321074
H   75.754662   87.852554   89.019516
H   25.804962   10.152013   25.358814
H   26.798731   74.183060   36.889736
H   42.575657   82.394066   56.156212
H    8.250820   33.917587   36.961082
H   17.762684   19.242296   58.426109
H    6.537759   12.046195   43.398323
H   64.043358    8.046536   65.708115
H   31.070210   37.353283   18.328634
H   44.348293   79.889015   61.495068
H   36.174019   46.636387   69.932152
H   20.464279   66.141426   77.623322
H   99.804741   49.179630   90.984306
H   89.249786   79.272758   58.198238
H   71.135765   42.062973   34.418705
H   17.037779   67.535721   50.084061
H   36.383270   24.050028   46.534798
H   98.278053    5.338971   13.697821
H   69.356148   75.855766   85.957466
H   43.186329   62.046993   33.373970
H   56.275356    2.312541   10.219314
H   84.702568   76.710922   17.627359
H   40.004749   40.992886   36.594070
H   43.493275    4.669428   60.512882
H   37.838783    1.289175   29.880722
H   22.839746   25.911011   63.784767
H   61.104618   96.222130   61.514057
H   87.182129   17.503237    6.116932
H   94.408310   11.824654   69.716293
H   38.916611   70.127800   19.995476
H   75.945740   13.330574   96.219681
H   43.354500   67.204422   59.817913
H   14.608304   79.517105   44.467857
H    2.153621   47.272629   61.922142
H   75.025055   21.681168   64.905716
H   19.881771   61.260063   87.387550
H   89.252998   45.455437    8.867079
H   59.036407    7.092247   58.237160
H   60.001869    8.816242   85.978874
H   33.573051   71.628235   99.554001
H   33.877190   56.026901   98.375893
H   90.443962    1.428841   18.022404
H   44.019302   81.993797    0.315546
H    0.660582   49.612347   54.075840
H   18.475412   29.190086    5.895048
H   63.110992   85.017189   44.492413
H   15.377748    6.790327   63.210213
H   94.620407   29.601297   52.416065
H   41.569706   50.706329   50.644627
H   28.058662   68.214226    2.942661
H   63.599091    6.714504   51.608456
H   93.810341   51.531101   25.192646
H   66.520340   72.302483   62.941620
H   24.051945   36.244152   20.212219
H   91.818718   48.622757   30.502441
H   60.377827   18.490240   93.999878
H   96.465363   69.751076    1.958992
H   19.559969    6.786498   82.512718
H   35.803043   33.774448   88.518318
H   12.102880   54.420341   55.634350
H   66.789139   51.411919   88.744499
H   69.649361   56.700417   22.694263
H    6.833942   81.592804   48.271725
H   51.564487    9.772268   47.674267
H   28.082140   46.121834   46.346252
H   28.464390   47.795433   70.979881
H   12.275269   54.056068   72.194588
H   44.956684   89.446075   31.550392
H   49.508636   69.155083   32.687767
H    9.183054    6.302535   98.483932
H    9.336183   21.967865   45.267845
H   76.651939   39.751331   88.677773
H   81.037033   61.418552   32.866806
