100
TIME:    7.481, STEP:  7481
H   11.412973   35.977119   92.296951
H   93.870285   10.247430   49.806889
H    8.362497   12.117202   35.524944
H   82.732269   24.433716   30.103203
H   28.162779   72.392479   62.864517
H   12.006537   93.103371   19.614285
H   60.889339   66.491867   75.477097
H   31.894447   35.803318   21.312881
H   69.730614   67.025726   29.184174
H   70.427010   23.801073    0.629209
H    4.390625   67.256866   19.142061
H   70.313843   98.674698   60.423210
H   66.711174    9.171122   81.665199
H   84.667091   82.017342   26.547398
H   71.470222    1.793034   91.141388
H    0.727711   57.413391   12.052397
H   22.529701   76.780228   54.413296
H   61.045574   30.813400   40.196686
H   61.780399   92.189484   57.488506
H   90.966873   46.944401   25.673838
H   20.343567   11.459625   54.194141
H   79.591095   54.015121   82.202042
H   85.860069   33.779732   18.309912
H   23.964823   26.322725   51.470238
H   62.020699   92.878815   91.788795
H   12.333782    5.562847   86.887260
H   16.983557   31.500078   48.404392
H    1.317250    5.627479   14.053899
H   73.837898   27.826612    3.541881
H   87.848389    5.684713   78.106804
H   10.479077   92.891617   17.506096
H   38.112087   45.817997    6.710394
H   97.307991   21.136652   71.744514
H   94.191338   88.133766   56.588394
H   94.774101   93.253380   80.202209
H   22.948124   71.372757   95.906776
H   97.324570   30.565889   97.938995
H   54.787460   22.045521   50.353943
H   29.296612   18.418447   19.347790
H   58.566078   11.836831   26.623652
H   23.977957   12.875394   18.593596
H   69.755989   70.939896   61.876774
H   75.668732    8.364183   41.833706
H    1.657550   38.210777   12.188306
H    7.734848   36.729839   96.278999
H   81.558525    5.604566   13.553644
H    0.180086   31.681015   97.273842
H   56.644222   72.421860   31.459408
H   83.707222   12.874195   46.054596
H   82.804932   44.599041   60.461868
H   42.987911   47.401489   32.286545
H   68.705139   69.558258   82.955627
H   64.052635   65.386108   68.385201
H    3.452072   85.144379   61.932083
H   45.146866   14.203692   63.980495
H    2.913336    4.664437   37.955902
H   70.513718   73.685265   67.492790
H   69.005051   70.399193   20.861860
H   80.284233   54.867130   37.169518
H   65.348579    2.801751   50.833153
H   31.608324   30.670902   31.118378
H   33.402626   58.309982   56.864075
H   81.946068   96.792633   20.475830
H   56.747601   82.515244   24.029583
H   29.255795   63.350430   92.241585
H   41.777679   70.370689   88.518951
H   87.353546    7.000979   28.245474
H   63.601906   45.384148   23.837662
H   29.754005   12.249374   91.037018
H   81.959984   24.396105   85.976517
H   84.476448   86.394669   72.411842
H   57.224483    3.200755    4.401129
H   19.216017   48.270962   69.938782
H   65.518929   75.946228   58.657806
H   22.838266   39.330563   68.516159
H    2.510176   87.034935   92.553261
H   46.217487   78.301338   23.417730
H   83.451309   61.557323   27.587061
H   20.254995   31.544666    1.144292
H   32.649185    1.493446   76.426399
H   57.267876    6.676736   27.112045
H    2.665428   92.986053   61.142803
H   91.064735   32.226841   42.396126
H   64.828941   52.324703   80.143181
H   88.067291   80.939232   22.553572
H   79.116806   83.844284   61.286560
H   66.793861   59.422829   80.266258
H   76.344078    6.436464   18.011589
H   10.935098   77.642311   67.005867
H    4.917384    1.485523   91.645035
H   30.176075   77.383324   91.446823
H   31.817141   58.121948   76.067665
H   65.000015   51.987507   97.521797
H   70.275246   67.036461   31.231104
H   27.250866   79.627457   87.992371
H   11.821563    0.316136   81.045433
H   68.795769   96.999161    6.949367
H   23.837259   56.617970   28.700987
H   52.335411   69.106972   18.424778
H    3.885884   86.659195   77.072220
