200
TIME:    0.816, STEP:   816
H   27.170332   60.563374   25.188820
H   33.097961   41.287102   13.280879
H    6.065224   94.349579   73.719292
H   37.258347   83.706184   29.437439
H    9.094604   98.327881   45.377007
H   70.880310   37.181450   48.500648
H   11.704436   54.895439   60.800289
H   15.796464   13.758239    4.627034
H   10.819963   78.870972   33.667904
H   90.584915   66.830040   73.352730
H   32.270199    6.898530   11.163811
H   33.159637   57.397110   40.187614
H   25.311382    6.124708   37.684258
H   77.179207   55.637112   70.021660
H   91.812759   76.378670   41.561356
H   12.511196    2.233710   41.897469
H   11.303193   34.695316   87.465858
H   22.884933   10.857621   33.265728
H   84.189972    8.848955   50.963081
H   91.888771   71.794518   15.142087
H   64.997673    5.511512   99.451630
H   77.205788   70.830971   48.377914
H   77.756676   58.353470   35.315407
H   20.808548   93.310646   89.779930
H   28.282333   35.869820   24.857128
H   18.184286   87.899124   87.932625
H   10.050403   70.354378   72.241043
H    7.729706   93.890663    2.246887
H   35.328602   39.021919   34.965561
H   67.020615   36.194942   78.701096
H   12.609478   75.513710   16.899036
H   21.451687   77.006332    7.784693
H   13.205818   21.379526   80.214798
H   77.363075   64.206337   48.358170
H   20.346373   66.000229   29.837198
H   14.246019   36.788895   86.081459
H    2.796583   61.996872   90.279152
H    4.423837   59.654972   89.269806
H   31.752380   25.775215   57.235100
H   84.558823   37.319836   41.196381
H   80.675697   78.316269   20.643013
H   42.009232   31.028429   22.751198
H   66.330765   74.549995   71.716469
H   35.998062   91.209480   39.348408
H   48.457733   93.868881   65.150047
H   32.954079   98.848213   48.952282
H   90.828644   97.992310    8.807525
H   76.092873   65.541817   26.940628
H    9.356345    6.893993   61.581615
H   41.504848   20.400869   81.344421
H   64.506088   63.205589    5.041568
H   99.119804   45.612041   75.925514
H   67.712852   77.950188   15.455053
H   13.833822   94.338974   90.232948
H   52.818039   63.574875   72.144936
H   97.922050   58.159210   97.509552
H    3.786672   18.925148   43.475880
H   73.701645   71.969528   94.906670
H   16.026987   85.604416   21.057499
H   29.781269   92.754799   56.346283
H   48.554039    4.138491   25.407215
H    0.288999   17.789385   53.482033
H   87.315964   37.138245   65.452301
H   38.082451   65.974113   16.528008
H   80.607651   84.665985   41.483631
H   16.144445   38.938835   43.216812
H   64.659523   11.011981   97.735512
H   94.115837   92.759499   98.675362
H   37.010620   13.637061   54.689278
H   41.921291   51.669292   50.951832
H   58.212479   86.554535   88.688568
H   15.952145    8.681840   40.732845
H   95.775040   35.621105   80.208160
H   26.630873   96.303886   77.341713
H   86.158707   10.195678   40.529221
H   67.872841   98.741371   59.113556
H   92.993011   51.393311   63.998112
H    5.221132   16.458586   28.271248
H   15.911852   55.352806   22.173773
H   59.595776   87.454544   66.945221
H   67.814873   20.367064   92.582123
H   51.964108   58.231113   70.050591
H    8.752460   19.984537   73.426689
H    5.890772   80.694557   12.624505
H   18.396744    5.414832   41.458710
H   40.894516   65.621002   15.792353
H   61.670891    3.984365    3.091868
H   70.541451   97.106476   33.167595
H   83.316238   73.459152   79.245117
H   20.559120   11.865782   48.528591
H   17.097748   39.865208   78.192474
H   80.043221   93.589172   10.936039
H   74.623093   10.365883   79.325043
H   34.199009   73.739799   84.920586
H   39.719658   49.134697   91.929527
H   45.418556   40.587471    1.979482
H   87.119072   94.355858   23.136070
H   93.061913   37.730076   54.455856
H   23.966148   64.008011   54.922508
H   77.219566    7.286656   27.391031
H   35.565334   96.352173   96.062843
H   11.990335   85.370926   62.687355
H   35.119339   16.119318   38.551632
H   49.553062   69.002960   13.036548
H   24.575190   19.903152   43.762096
H   10.226908   98.572128   16.923113
H   90.942665   36.907444   53.169888
H   61.356907   56.389854   96.468880
H   87.434746   32.818901   26.985126
H   22.869905   20.029383    8.356356
H   54.772911   91.061409    1.201109
H    9.121750   77.829773   97.072197
H   47.089890   86.958740   81.406563
H   61.273003    6.979523   60.101044
H   44.628578    5.953762    6.576236
H   90.531837   88.947945    4.919389
H    8.892646   16.553404   90.894943
H   37.848751   55.347797   22.464836
H   40.736778   79.339096   55.072575
H   85.983315   58.170956   70.830521
H   46.566292   25.587070   68.645317
H   93.436493   13.835011   65.131134
H   46.123116   97.529251   41.116772
H   95.591156   46.591667   92.641106
H   59.681023   94.691032   73.762840
H   68.824799   78.111633   14.409897
H   81.069252   51.879379   48.809647
H   62.829552   92.087547   39.867321
H   99.556099   31.633816   71.763802
H   95.663651   21.419243   76.314598
H   71.860420   64.619293   25.423550
H   59.591118   91.764267   22.910480
H   90.556892   10.618242    1.660371
H   72.676910   27.770962   56.796062
H   32.880863   90.955109   29.948624
H   47.016769    0.887608   75.195763
H   69.846329   88.032295   84.012978
H   96.131432   46.236332   74.097298
H   61.368896   52.388809   71.413857
H   43.759956   81.465355   79.452606
H   79.133774   46.129944   33.516357
H   30.721748   58.512047   59.674381
H   36.489143   67.362099   79.956024
H   31.319527    5.677422   87.669350
H   67.376648   50.664047   67.903503
H   67.045189   71.899033    2.259441
H   58.354301   94.255333   43.157627
H   26.924416   51.977776   65.520287
H   80.583710   40.743279   92.218384
H   27.823235   94.963371   68.441757
H   55.918365   71.092178   46.995808
H   58.034195   91.171318   30.101791
H    2.934096   10.300991   83.245010
H   25.136063   14.364100   61.718281
H   36.453114   69.091446   71.173332
H   80.601219   44.957127   71.782867
H   65.340561   78.158096   87.576096
H   54.235275   27.418198   23.218639
H   86.019188   99.563889   81.243294
H   57.221912   33.441864    0.345539
H   59.613907   61.008507   68.100945
H   16.559534   20.071316   30.553986
H   90.013298    9.456409   36.992550
H   32.417725   37.100803   46.555817
H   53.439049   41.633041   15.484152
H   21.837646   46.111904   59.153141
H   64.981377   88.250557   58.327900
H   24.135387   57.139351   71.831070
H    1.900013   26.297041   35.496826
H   52.758842    6.112973   83.917023
H   68.361084   12.483794   35.927734
H   26.264185   44.052483   59.226913
H   48.802094   52.703236   74.216995
H   64.133163   60.761314   87.603043
H   44.666382   90.703537   72.147926
H   18.688835   50.774910   23.846710
H   29.500507   70.915405   11.002197
H    6.835013    9.750175   72.245438
H   60.870632    7.989099   62.398548
H   58.901039   60.633812   94.510490
H   70.901703    5.830890   28.327267
H   30.845709   30.809170   90.643997
H   39.113415   89.559113   17.478714
H   64.024818   26.286160   98.380714
H   92.971695   63.351471   76.023788
H   11.318687   41.084122   86.837013
H   51.408630   94.658516   12.027945
H   62.748688   91.622993   45.681709
H   89.937172   63.742008   73.126419
H   60.087936   55.140011   72.980362
H   75.335724   11.967461   75.188179
H   42.930992    0.582544   17.287718
H   16.894722   31.227272   71.001961
H   25.040850   86.518921   44.921436
H   65.128006   28.527702   19.932129
H   76.734390   11.796837   21.674892
H   13.290015    1.265588   22.908186
H   12.169497   85.958427   30.722328
H    4.232219   13.223589   52.256325
H    2.000092   15.477909   89.746353
