100
TIME:    4.246, STEP:  4246
H   30.182140   32.641418   95.258682
H   83.211617   34.948425   45.830078
H   52.739586   79.378471   73.502968
H   82.189285   57.715263    7.424636
H   57.140015   13.093127   50.577682
H   62.182705   96.608086   99.241234
H   30.437901   48.048626   22.495737
H   86.159065   55.934032   18.339855
H   49.253151   78.057755   32.816051
H   58.808311   77.349632   73.959839
H    5.302444   37.089405   30.753601
H   93.781425   36.520531   90.694527
H   73.121109    4.825653    3.118193
H   44.843620   91.988503   80.362778
H   32.149391   90.757812   46.671604
H   30.802681   40.358452   80.585876
H   82.669014   62.809177   59.918480
H   91.870567   88.217552   52.339901
H   11.401245   56.480019   87.058258
H   78.122368   15.647600    5.420029
H   12.313049   33.514751   41.999382
H   69.448502   49.720612   57.692154
H   29.053810   60.089775   10.866557
H   24.542122   87.605774   91.727768
H   77.723053   49.431168   67.897499
H   27.190657    1.131037   91.144020
H   95.941277   65.977982   84.216103
H   74.276093   54.628632    7.120364
H    3.495702   34.321987   56.461281
H   63.803665   85.750969   20.933277
H   83.162483    2.803087   73.448936
H   33.852123   35.198990    6.190548
H   69.440895   57.824608   80.310165
H   57.505280   84.602234   92.874626
H   75.226913   37.955162   83.280045
H   41.734882   17.994160    6.079457
H   87.045578   49.038559   43.033436
H   88.497322   81.248268   22.070309
H   65.849670   88.905266   32.842918
H   63.266716   14.686706   72.101624
H   45.067368    1.876198   42.379620
H   50.014847    2.419726    2.282521
H   47.814121   88.961945    8.167360
H    8.223528   83.928986   95.886353
H   88.346519   64.363525   19.452463
H   23.308453   43.902760    0.408263
H   74.906540   55.749962   66.225029
H   56.466175   39.102386   31.296318
H   89.145737   80.795746   75.100677
H   14.928905   95.360512   86.693703
H   43.220676   59.719673   98.185959
H   11.480471   69.743011   95.319092
H   96.947090   46.628479   56.269314
H   78.363914   37.928429   19.180515
H    2.721584   30.697481   36.461079
H   98.878922    8.067404   48.082947
H   65.428299   67.030144   59.817390
H    9.889798   75.905235    4.187262
H   25.149839   18.172642   85.515633
H   78.826141   54.150661   42.844246
H   27.541906   81.112938   83.344154
H   48.215782   88.420914    3.234859
H   62.322636   17.543556   42.309502
H   34.604439   64.892944   11.859470
H    0.852444   21.722656   90.980247
H   40.506538   31.191475   97.240463
H   46.904251   95.158508   72.059006
H   87.065392   60.370621   69.185951
H   68.523758   44.695847   93.930237
H   16.410700   61.705704   92.792267
H   87.202232    6.501713   11.213562
H   23.865322   10.608607   67.495171
H   30.144835    8.282940   52.882912
H   36.739498   80.684746   50.870872
H   66.886360   34.692455   23.273817
H   26.035242   79.702110   10.228081
H   52.464775   58.532276   66.141609
H   31.465130   73.085945   48.931488
H   65.122017   41.046886   65.059929
H   91.293243   77.708336   55.124504
H   93.961716   73.208481   33.761822
H   59.908554   71.957169   31.730089
H   86.441048   78.131653   34.310558
H   42.267914   75.498360   75.609940
H   45.584732   83.295082   36.150253
H   53.572407   65.019539   36.638443
H   50.735466   94.634125   26.009306
H   24.301615   65.349220   51.586327
H   43.800888   57.761559   93.463997
H   90.934982   34.583977   76.000336
H   97.786377    2.704123   23.129557
H   92.457428   14.822006   14.432352
H   57.630318   54.919281   47.354229
H   57.620632   70.785202   13.105005
H   83.179268   69.399590   13.655776
H   44.623795   28.060936   48.137596
H   25.574680   11.349746   92.997330
H   22.451620   52.389832   88.092567
H    6.443536   55.153133   89.389580
H    2.947387   69.671822   88.709427
