200
TIME:    0.385, STEP:   385
H   13.926764   61.993771   17.818987
H   29.256676   34.994999   95.783600
H   15.098555   75.484779   52.490227
H   22.730249   78.668556   40.707981
H   13.670641   87.404251   51.573750
H   84.901489   48.879467   61.257488
H    5.460013   55.201248   52.457951
H    6.137996   95.147827   19.925446
H   93.317108   85.332420   44.182144
H    5.756939   72.867790   90.353081
H   17.247740   97.691719   97.543808
H   31.377396   45.893101   19.651226
H   14.733020   91.820122   55.348839
H   97.550034   53.818699   49.252956
H   12.621233   73.060806   42.621822
H   25.073914   19.991997   51.195049
H   91.028625   14.509565    8.392073
H   33.118938   90.137596   40.938904
H   69.849831   24.452425   44.618366
H   90.517563   77.713402   31.849804
H   59.825226   83.996529   19.197369
H   86.800957   54.356743   64.986961
H   90.663132   61.487190   45.657013
H   11.679492   89.381165   91.131409
H    9.548923   18.535707   40.236362
H   18.541063   68.771263    2.167540
H    1.703671   61.706226   54.911865
H   97.837921   76.110992    1.112805
H   17.175713   52.122383   37.489307
H   86.497032   24.648708   93.610107
H   13.172183   57.507145   16.372091
H   29.289276   66.904770   97.173035
H   23.619766   12.105613   74.950279
H   91.627586   63.736115   40.824745
H   41.030048   83.809494   33.116146
H   28.324795   46.615887   81.139191
H   90.426224   71.299385   87.043495
H   25.742697   48.506096    8.647963
H   47.703773   41.208374   47.654728
H   88.692177   39.092213   58.032318
H   80.547455   98.450340    6.337144
H   20.556566   40.066326   35.531651
H   74.091080   84.450974   55.712460
H   36.958237   70.276360   23.934216
H   33.731220   80.719093   49.596535
H   39.019291   10.064898   44.264854
H   82.706619   19.108318   99.358406
H   86.585739   65.548393   42.434952
H   92.688011   23.249615   61.270874
H   56.928474   18.455858   99.577873
H   74.758911   68.660828   22.122253
H   15.595201   38.193707   66.659172
H   56.086849   90.272644    9.825191
H   20.248552   85.243622   83.850418
H   71.061356   73.160179   86.083908
H    3.446857   68.777939   83.396301
H    5.016673   17.294167   48.099186
H   68.992844   61.950176    2.686369
H   25.121517   77.278519   10.633474
H   39.749657   95.174965   64.313759
H   49.949909   12.547417   38.000072
H   92.541939   16.768377   50.177422
H   75.442024   28.210247   79.993027
H   27.639250   65.359207    6.904912
H   73.679268   78.240707   23.858891
H   33.051853   22.194489   35.469650
H   80.758888   20.103449   88.830879
H   96.529427   91.779594   90.142303
H   21.680157    7.812715   60.144516
H   44.402290   44.157242   50.974850
H   58.401554   79.100029   77.159897
H   28.065306   20.010483   43.749832
H   82.095840   28.169888   94.640373
H   12.589241    5.777502   64.793678
H   80.910629    3.218792   60.794823
H   56.978806   13.957430   61.929958
H   94.814713   35.348202   70.094566
H   21.184614    8.610310   43.009270
H   12.632950   36.153542   31.726978
H   66.091225   89.858269   87.385101
H   49.522236   27.651402   98.981094
H   33.012169   65.982788   83.374657
H   10.433998   15.256829   86.037201
H   19.945625   66.601036   98.577484
H   33.744740    0.857156   53.672985
H   28.752363   80.701004   24.764385
H   42.353954    3.086257    2.103744
H   74.125664   13.147647   16.911272
H   70.123703   72.410194   77.693054
H   22.717869   92.546448   53.270275
H   35.164463   36.144531   80.109535
H   83.045410   89.807663    1.531728
H   54.147835   15.226767   91.600151
H   53.525810   89.224258   73.086105
H   28.799074   54.964798   73.978867
H   63.267281   30.951199   22.244064
H   81.272530    9.263933    4.574007
H    2.908554   30.691889   49.966442
H   33.732307   68.325508   53.395107
H   69.725601    0.283680   27.285807
H   16.335539   84.435486   75.767647
H   95.964226   78.850288   65.064774
H   26.185110   31.870949   32.529167
H   28.843418   68.207199   95.920464
H   25.146526   25.567196   29.788597
H   93.163498   19.673721   37.102192
H   72.527084   31.897223   55.584412
H   63.897095   39.841640   13.134721
H   76.481522   38.259342    6.144077
H    9.024650   26.038694    6.246932
H   49.102291   94.806747    0.897869
H   91.816216   66.991638   92.162811
H   54.575634   81.957283   90.781418
H   62.732994   16.271326   71.214813
H   59.011467   88.006546   21.688555
H    8.120958    1.555367   85.475716
H   26.613293   10.484455   85.870468
H   40.035450   34.133530   31.080101
H   24.369038   63.157528   76.373291
H   74.609192   49.568844   54.751827
H   42.067940   22.722988   82.768433
H   12.032631   24.045086   52.453358
H   35.732185   15.707143   28.330574
H    1.940948   62.100788   11.515437
H   72.577614    5.361948   88.017487
H   53.034618   66.319717   22.731712
H   91.782433   49.866959   65.454865
H   72.257019   88.707207   36.227207
H   94.252121   47.235008   81.585861
H   74.773277   23.462080   68.971893
H   54.462189   80.008392    8.952610
H   76.134399   87.489517   12.746442
H   91.964272   89.649368   98.453758
H   93.810616   16.720716   51.492046
H   11.589235   98.748306   49.753868
H   58.496117    1.440756   81.545410
H   69.132774   86.934013   62.557022
H   92.455147   59.693573   80.907303
H   50.103287   46.361412   71.515793
H   43.526489    2.135551   91.428482
H   57.796192   58.804577   19.593826
H   50.563110   45.416515   49.627075
H   50.344265   59.429848   94.493462
H   51.068871   21.278887   80.527229
H   47.117619   64.958153   53.809986
H   51.252956   64.474121   22.901608
H   48.160667   96.142799   46.243668
H   38.693130   68.021240   67.993065
H   69.061615   58.738331   96.502998
H   14.084083   90.257858   84.570717
H   71.109291   63.772488   50.249550
H   39.891171    3.097626   43.608356
H   82.911781   26.416798   98.374336
H   13.742951    4.471004   72.369339
H   19.362335   57.708366   63.376713
H   67.806564   43.888439   58.521961
H   60.829052   65.231911   82.472702
H   48.107586   34.333427   13.121187
H    5.745451    1.187977   97.227570
H   62.054024   51.027527   83.805573
H   55.380260   78.518539   79.560562
H   36.796169   22.304873   34.287815
H   71.460884   28.248045   37.171761
H   16.597061   24.439323   64.994873
H   57.565826   27.008463   11.249272
H   14.411912   59.825630   61.509186
H   72.403000   95.221687   53.758850
H   23.758881   37.529758   54.008656
H   96.043213   27.698666   36.514545
H   33.090061    9.365482   88.770508
H   76.594910    7.358205   35.963905
H   41.153786   60.061420   57.903385
H   40.474552   71.223770   86.344131
H   69.440430   71.069519   77.603416
H   64.698517   93.945770   92.413528
H    5.384166   48.444084   23.425858
H   33.928162   57.450741   92.973602
H    3.015098    9.339142   66.734299
H   71.893379   18.008783   67.438942
H   79.402985   56.010506   88.430481
H   78.770531   90.385529   38.347965
H   22.152348   30.283047   74.909630
H   58.959541   90.015305    8.939858
H   54.638462   25.488754   82.524681
H   87.398079   82.045280   77.799454
H    2.295958   37.447296   84.679909
H   36.400970    2.040828    2.477973
H   83.454918   73.366524   30.600142
H    2.419283   61.820015   68.200592
H   52.250347   57.484547   67.534988
H   54.747131   26.227039   78.265999
H   46.464237   88.869705   22.777483
H    7.321284   20.973627   61.127766
H   32.570225   69.317986   36.235474
H   79.918640   47.778725   21.341974
H   75.682144   10.739247   27.579802
H   10.425111   89.513191    8.360883
H   24.695461   94.524368   42.877415
H    9.979702   12.017616   71.532158
H    6.495407   30.080275   95.734291
