100
TIME:    2.002, STEP:  2002
H   81.935455   38.427658   97.313126
H   45.581001   13.289640    4.285776
H   14.167410   17.935879   99.834084
H   81.812637   50.168175   30.426338
H   77.239319   33.226643   11.422640
H   96.972176   99.039177   77.010948
H   48.044903   96.521461   47.011864
H   62.533043   61.799328   24.376762
H    4.415016   93.809158   74.069115
H   20.130632   45.129112   86.085838
H   14.033859   46.797230   46.906414
H   79.430237   24.040361   50.424232
H   15.915511   40.583702   26.146687
H   55.954155   98.905128    9.592457
H    4.851267   91.200775   54.539253
H   21.028942   36.626961   66.858170
H   63.109650   14.392464   55.630768
H   43.926392   97.343208   30.140709
H   76.444725   62.341873   68.834198
H   38.580551   63.296505   52.638100
H   45.475113   56.912724    2.907013
H   54.312687   46.742348   48.788834
H   59.014442   78.340080   75.070389
H   33.034050   60.692570   58.389282
H   57.980705   27.397331   51.333099
H   37.479282   67.953384    1.525191
H   89.444130   59.258236   39.693821
H   63.617912   49.886303   32.947193
H   54.702438   30.728762   62.536583
H   77.759163   41.290634   42.541500
H   94.854744    1.574672   50.992405
H   92.164795   97.200981   13.928871
H   11.375385   22.006252   78.152924
H   62.690544   90.251480   87.410507
H   31.008827    7.584298   46.635498
H   46.620983   41.751797   13.757577
H   71.816193   31.219500   66.215088
H   81.244347   22.311810   63.715649
H   60.719704   37.771202   50.245422
H   74.626808   24.762453   95.547134
H   98.427605   24.877096   89.510788
H   51.692841    1.707292   96.857529
H   28.485235   75.505341   46.079552
H   51.517738   46.324623   76.478439
H   82.996574   52.900539   27.426962
H   52.258984    1.101868   91.299599
H   57.219349   33.737633   44.730171
H   56.346333   15.995829   92.450371
H   23.551069   66.642723   64.615829
H   67.876732   61.221119   43.641590
H   43.391880   76.363213   74.525620
H    2.426992   77.968903   42.634892
H   50.408951   33.617004   86.596855
H   30.331341   74.543953   20.159014
H   81.381165   34.010754   17.394239
H   96.071182   10.427942   24.473999
H   23.170237   31.780342   46.394356
H   76.983978   87.823166   61.988846
H   48.169662   23.358210   57.789635
H   26.907581   81.668427    6.668557
H   85.988113   85.469551   58.303043
H   27.856709    9.309649    4.769105
H   10.026714   70.631844   96.213058
H   80.513611   52.684875   72.788368
H   11.784133    0.947082   82.003876
H   78.359291   42.747627   64.559212
H   26.944689   17.577681   63.718945
H   42.074028   32.034363   61.909779
H   56.683136    5.935364   34.670692
H   70.942200   48.838593   97.517487
H   58.460060   59.184280   38.136600
H    8.893493   85.082489    3.198267
H   76.457336   19.279797   10.413670
H   86.131462   22.688665   84.223747
H   58.694588   31.492308   53.163311
H   72.989006   35.881897   61.219151
H   48.723969   53.027580   26.455412
H   26.037930   19.814379   25.002621
H   57.515457   47.637547   40.014214
H    1.343416   99.920227   48.447060
H   50.059673   49.993267   99.644035
H   91.535110   57.302139   19.371569
H   44.469402   40.672302   20.580357
H   87.889534   83.475319   80.569305
H   54.848877   23.657585   53.680969
H    5.212392   82.592110   80.808144
H    0.863768   57.791214   19.006529
H   88.183411   45.009521   74.929390
H   97.228706   82.704277   11.820662
H   89.334671   26.907410   95.785255
H    5.952711   81.533310   75.740311
H   26.415224   46.074650   71.667564
H   13.736290   87.619125   73.795242
H   40.728977   34.668514   61.801895
H   21.978443   70.403381   62.090385
H   59.278580   16.674692   64.043030
H    3.693341   82.571266   22.052643
H   14.215800   33.283508   24.003479
H   13.342506   45.480129   77.352188
H   63.572311   27.279675    4.864295
