200
TIME:    0.195, STEP:   195
H    8.088379   62.624340   14.570105
H   27.563198   32.221218   88.070358
H   19.080885   67.168510   43.131706
H   16.325621   76.447792   45.676434
H   15.687920   82.588730   54.305492
H   91.082520   54.036366   66.881523
H    2.707273   55.336060   48.780354
H    1.880201   86.943176   26.669640
H   85.600967   88.180855   48.817192
H   12.445293   75.529228   97.847435
H   10.625163   93.632881   91.539627
H   30.591721   40.821728   10.598097
H   10.069705   85.514427   63.136009
H    6.530739   53.017078   40.097378
H   21.794502   71.598175   43.089314
H   30.612053   27.820480   55.293751
H   82.090485    5.610950   17.616869
H   37.630772   81.003761   44.321510
H   63.528194   31.331068   41.821392
H   89.913086   80.322655   39.215145
H   57.545029   74.511894   27.902126
H   91.030846   47.094322   72.308815
H   96.352753   62.868645   50.215958
H    7.655962   87.650047   91.726479
H    1.290528   10.894099   47.016071
H   18.698343   60.339340    8.442793
H   98.024406   57.893818   47.272552
H   93.477570   68.273087    0.612865
H    9.173280   57.897530   38.601864
H   95.082924   19.558853    0.182519
H   13.420243   49.569218   16.139795
H   32.744362   62.451645   92.495224
H   28.210602    8.017240   72.629494
H   97.915886   63.528824   37.503746
H   50.147938   91.660446   34.561382
H   34.531193   50.947971   78.960464
H   84.972885   75.400261   85.617104
H   35.140839   43.591278   17.190729
H   54.735710   48.012001   43.431362
H   90.514305   39.873539   65.454193
H   80.490921    7.325903    0.030632
H   11.099474   44.050510   41.165462
H   77.512100   88.815674   48.657330
H   37.381516   61.048534   17.138924
H   27.239521   74.922203   42.739998
H   41.693050   15.009614   42.198471
H   79.126144   28.416828   95.192299
H   91.211365   65.551292   49.265396
H   85.340065   30.459850   61.133888
H   63.727753   17.598429    7.616259
H   79.278717   71.065689   29.652122
H   22.858335   34.923443   62.573986
H   50.963291   95.710037    7.339490
H   23.076330   81.234070   81.036774
H   79.103653   77.385719   92.228699
H    5.882523   73.458649   77.174683
H    5.558908   16.575172   50.137302
H   66.917038   57.533291    6.115634
H   29.130707   73.608170    6.038109
H   44.144073   96.241859   67.826103
H   50.565258   16.254368   43.551258
H   89.128166   16.318281   48.721313
H   70.207573   24.274261   86.403091
H   23.035730   65.088135    2.662791
H   70.624992   75.408218   16.089478
H   40.504894   14.812869   32.054428
H   87.856056   24.111189   84.905403
H   97.593422   91.347618   86.380630
H   14.921859    5.245137   62.549377
H   45.496002   40.845665   50.984997
H   58.484905   75.813820   72.077652
H   33.405121   25.004665   45.079826
H   76.065567   24.885128    1.002544
H    6.399332    9.953805   59.262680
H   78.597092    0.143135   69.728615
H   52.176331   20.665329   63.171528
H   95.617783   28.274954   72.782097
H   28.221987    5.150513   49.506310
H   11.188438   27.688507   35.935123
H   68.954155   90.917915   96.395721
H   41.458195   30.862595    1.801578
H   24.657804   69.399460   89.248375
H   11.175280   13.172688   91.596359
H   26.141514   60.388115   92.384857
H   40.510677   98.848007   59.057468
H   23.399408   87.348801   28.719578
H   33.838367    2.690339    1.668161
H   75.705711   20.219158    9.744887
H   64.311546   71.938744   77.002563
H   23.669521   84.030136   55.360577
H   43.129208   34.504326   80.954643
H   84.368881   88.140640   97.385941
H   45.121994   17.369616   97.011452
H   62.045746   96.050354   67.869049
H   23.984640   57.534912   66.065582
H   71.135628   26.703190   31.177494
H   78.695168   15.835627   96.391167
H    8.131771   27.739447   48.167507
H   38.037575   70.228813   52.721775
H   66.421997   97.196106   27.239420
H    7.858538   79.182190   66.820808
H   88.898949   75.975761   66.112823
H   22.246588   38.814468   29.873960
H   19.713570   67.856400   88.375374
H   25.398392   28.064106   23.628586
H   85.641602   28.976070   45.997570
H   63.526615   29.538023   56.468658
H   65.016243   32.546604   20.481651
H   71.652954   40.657681   96.956612
H    2.921180   28.687811    5.317023
H   46.602482   96.457825    0.764190
H   84.187050   62.213535   89.998581
H   57.875614   79.752464   94.914185
H   63.376610   20.367491   76.114410
H   65.351952   80.094711   28.350485
H   15.874969    7.113783   76.904320
H   34.425106    7.809059   83.655502
H   40.999424   24.781532   34.878014
H   17.153366   56.024120   85.763702
H   69.595078   45.776730   47.664082
H   40.084908   21.460400   88.994400
H   20.230759   28.546047   46.864483
H   31.151495   23.720455   22.694225
H    4.740311   68.938278   19.835791
H   78.262886   10.066264   94.301437
H   46.073711   61.121101   26.400249
H   96.505180   48.979813   72.792664
H   76.412979   87.217033   34.622517
H   91.913940   54.112564   85.915771
H   65.564064   24.362635   65.734970
H   46.792435   86.792450    1.691652
H   83.427261   85.605057    8.265775
H   92.584694   80.405365   97.040413
H    3.127161   11.849177   49.153141
H    2.203047    2.183780   58.484718
H   63.556618    1.684604   84.344559
H   68.818214   86.449852   53.098480
H   90.834511   65.625801   83.909393
H   45.137009   43.704323   71.560730
H   43.423569   11.248186   96.707870
H   48.389835   64.392052   13.456358
H   59.309906   39.643543   45.197868
H   56.452091   55.932724    0.902054
H   59.775078   28.156675   77.378731
H   38.186726   71.259499   47.597065
H   44.291325   61.200336   32.001377
H   43.666954   96.974861   47.604103
H   43.881195   75.093765   69.083153
H   63.982273   66.670944   98.391808
H    8.026643   88.182579   91.681656
H   77.806374   60.545712   51.683914
H   31.893089    8.354832   49.562527
H   74.085258   33.521214    5.044379
H    8.720321    0.109827   77.064545
H   11.828117   52.690628   59.939022
H   62.166229   43.417324   52.676510
H   58.840221   59.534157   80.222946
H   45.406284   37.381905    8.669874
H   14.441354    1.903890    4.273700
H   64.184128   58.779907   76.514160
H   53.513920   86.237579   84.612366
H   45.716915   23.289503   35.933819
H   63.282330   36.531864   37.250763
H    9.622910   18.857697   73.124146
H   59.385056   20.561434    9.382388
H   11.138387   65.870903   62.547813
H   75.674713   98.294807   51.744652
H   23.592903   28.885159   46.151905
H   93.461502   28.316551   36.963192
H   24.419369   10.799303   90.910095
H   80.224670    5.098665   35.979851
H   47.717506   67.118408   57.319927
H   36.803478   79.387833   91.690201
H   71.777763   75.623001   73.201645
H   73.529388   95.375061    1.347219
H   99.517998   47.417778   23.243572
H   35.880028   51.515415   85.025528
H    1.331179    9.157944   64.304794
H   76.752388   22.425669   69.661156
H   88.441147   53.972389   85.750198
H   82.239388   83.576828   42.765575
H   18.320007   30.051113   67.973366
H   67.706757   90.212448    5.179386
H   50.501076   25.136997   75.534782
H   84.941032   90.286171   78.582230
H   98.318352   35.844055   83.728981
H   29.785187    5.295391   98.268143
H   92.582954   65.318428   23.951982
H    7.921545   60.972733   66.029114
H   48.795261   58.518101   65.134476
H   45.670555   32.513165   79.622810
H   48.021816   83.706284   25.197565
H    3.100918   16.453459   56.775387
H   35.889774   61.734989   32.406395
H   86.438873   56.265320   21.963484
H   75.218277   10.273025   30.182894
H    9.162160   84.332375    1.947905
H   30.217293   98.300537   48.235806
H   12.513395   11.485981   80.029625
H    8.477101   36.517265   98.373985
