100
TIME:    9.019, STEP:  9019
H    7.404214   94.936501   90.888870
H   51.393173   93.589722   46.782269
H   34.799221   22.766670   17.471027
H   82.990417   61.067802   45.801003
H   14.381186   95.669876   21.163376
H   88.158569   91.437141   71.928375
H   80.283669   70.345039   95.750710
H   11.010681   68.859146   80.099388
H   31.923637   19.152214   32.372906
H   28.418756   45.884480   60.851051
H   61.329620   29.140179   70.992989
H   11.609856   75.766533   50.946526
H   68.637939   16.080414   28.824326
H    8.514895   77.276802   43.590504
H   90.150764   64.411293   17.177628
H   38.889420   22.894371   84.384827
H   98.852577   78.507057   94.423500
H   93.930344   55.974373   86.883377
H   85.740158   56.713200   38.517162
H   49.526455   14.285471   30.388025
H   29.076469   58.348167   12.453520
H   27.040659   56.056839   51.227112
H   65.325554   21.276312   74.306000
H   81.063095   44.721649   37.244686
H    7.013852   70.909363    3.145830
H    5.080881   60.223373   42.154064
H   84.360756   67.569717   78.918808
H   71.543915   77.416138   64.895195
H    7.280224   67.366234   30.838284
H   46.821083   67.619156    0.373705
H   71.011650   30.807220   95.824524
H   35.222370    3.328437   64.330070
H    5.642439    8.609734   10.299703
H   59.176453   47.185120   91.795952
H   56.497765   76.805153   73.776810
H   56.643620   91.838791   91.072365
H   44.838257   74.239510   19.127096
H   91.220467   93.899742   58.885796
H   64.379356   84.909325   70.304352
H   13.704809   67.855583   47.631180
H   18.866671   65.643600   54.828213
H   40.141769   76.971176   40.396679
H   88.904694   17.590553   52.923801
H    3.451842   64.033058   62.563168
H   74.323746   76.057869   27.891943
H   61.705940   34.934429   19.802004
H   12.203795   15.322157   12.042368
H   56.738094   88.262772   26.621754
H   28.664711   85.496742   84.702728
H   15.092804   68.010399   52.925022
H   42.882305   98.916817   48.502945
H   43.452816   26.842388   81.994728
H   95.945671   74.303955   79.063828
H   67.828766   60.055222   29.799026
H   22.688862   48.987328   77.052200
H    4.828913    3.046611   85.598740
H   68.016083   29.307243   13.769507
H   54.482361   25.154135   81.245872
H    1.587862   19.853689   19.096506
H   63.856365   21.018177    7.088768
H   28.626390   59.144352   11.204529
H   78.815971   43.994492   87.273872
H   86.360764   91.842308   15.010559
H   62.359745   90.893326   82.274078
H   90.302521   40.511486   35.469257
H   47.297401   93.912498   79.458031
H   63.957260   60.170063    2.498750
H   57.361755   33.344307   97.362961
H    6.406618    1.738517   94.576141
H   13.196197    1.646614   82.714462
H   35.632687   81.746758   53.965981
H   30.574793   52.134178   17.135239
H   18.936249   72.192772   30.502415
H   31.665791   78.606789   67.275276
H   96.926071   41.595226   85.128357
H   38.872971   85.606438   89.065109
H   85.900223   45.183521   50.697456
H   55.702404   60.996346   12.534659
H   94.008018   27.027073   18.308626
H   57.224968   17.711546   43.926262
H   87.377342   22.588053   19.036751
H   18.074905    2.963006   32.474731
H   88.345741   57.947788   88.866798
H   70.640907   83.934425   39.670757
H   13.180847   84.727707   73.462784
H   43.720310   40.336861   68.089920
H   69.513466   47.597389   53.603935
H    1.079287   83.365578    2.064971
H   42.855473   92.009193   54.427010
H   68.938919   38.210686   46.623413
H   93.117302   60.428638   23.926903
H   45.613567   73.794510    5.377243
H   63.588795   98.128685   16.457697
H   18.916979   60.345203   34.934841
H    0.656122   41.862934   23.332655
H   38.854034   39.580933    1.605663
H   46.716301   85.260780   18.497280
H   20.868555   32.720905   97.822533
H   79.068748   75.748421   89.601357
H   99.417175   47.190990   28.911068
