100
TIME:    4.752, STEP:  4752
H   95.964516   86.238777   94.795425
H   69.236702   62.369370   77.735229
H   61.437233   15.781924   67.565559
H   82.274216   36.868706   79.690315
H   52.607819   53.651260   36.857559
H   54.334362   96.059898   49.353054
H    3.918743   82.215622   62.065594
H   46.388466   99.711090   71.881721
H   36.814705   29.408066    0.964714
H   44.980095   84.615044   93.771790
H   58.235565   57.449543   82.012497
H   74.471336   61.883842   54.676308
H   40.832108   74.227242   52.839355
H   19.790089   90.428871   18.869005
H   38.302986   45.559387   22.347527
H   10.456055   96.101639   38.583923
H   41.979622   96.279343    5.981657
H    2.686364   63.599819   34.796825
H   19.282402   77.706268   13.716814
H   64.487175    4.901972   39.870857
H   82.286308   83.140778   28.267151
H   17.959213   50.392334   14.601547
H   22.297981   55.974510   96.389053
H   77.529190   93.674438   54.148903
H   59.625153    9.301544   71.634438
H   24.884024   86.175293   43.561481
H   52.309166   44.942623   94.253334
H   31.582169   78.247009   23.847284
H   14.499005   80.230736   32.541786
H   83.206406   73.227592   61.158882
H    3.075225   48.176197   33.415825
H   65.801399   21.220215   59.347603
H    5.081198   20.803251   25.894644
H   78.884583   38.230225   71.557091
H   62.649490   99.705185   14.092590
H   85.721115   57.625782    4.487494
H   35.577820   30.508129   82.904404
H   67.581276   71.990852   57.775829
H   44.490002   77.879753   83.808380
H   15.608503   67.317802   11.911409
H   10.486446   19.236891   54.300762
H    4.537919   25.129751   26.053118
H   52.172596   91.996277   44.715515
H   75.911758   92.406586   45.360939
H   44.454655   44.400948   62.752094
H   16.780392   53.553944    2.465247
H   78.859665   83.267418   71.081505
H   56.493198   44.314026   62.604759
H    3.938161   38.888760   54.916382
H   25.541348    3.059828   51.302269
H   43.182072   10.868404    3.520500
H   36.070076   22.788919   62.103355
H    7.442156   49.562439   26.879866
H   66.643517   29.670876   41.508385
H   62.433716   75.043709   40.765507
H   99.512039    7.535080   30.857513
H   97.508835   52.429832    7.942198
H   72.211807   28.120134   91.153915
H   65.055656   39.553192   46.669823
H   45.435192   93.042053   28.452400
H   59.460571   57.580547   43.892082
H   30.257048   83.711136   80.341797
H   96.673317   83.014938    7.611565
H   69.351967   67.649323   98.120575
H   20.936724   81.310089   38.102497
H    9.422775    6.036997   27.158651
H    6.306308   12.652295   96.488083
H   52.112663   89.308731   93.375679
H   93.740372    8.337906   62.196922
H   26.662188   87.154297   91.726776
H   71.134941   72.073822    5.143195
H   82.142731   93.815155    4.540538
H   97.151550   83.252907   39.907860
H   25.598446   48.664127   20.805634
H   91.284554   35.414364   61.631924
H   37.998848   12.130930   76.179489
H   98.405380   14.674198   75.090187
H   55.237926   39.998882   76.875679
H   89.388954   39.560604   70.703941
H   66.478119   50.150333   11.532135
H    3.861265   78.443283   64.004768
H   97.872871   75.261734   89.417870
H   18.448725   86.589539   82.500458
H   77.079254   18.797918   29.395241
H   20.946321   51.645409   87.099373
H   41.925358   83.603859   71.776474
H   84.530052   57.843811   50.137268
H   32.445389   24.837751   46.324501
H   54.301376   29.587988   89.325569
H   46.198277   13.764442   94.090515
H   18.494133   30.026543   33.815350
H   29.898775   52.874924   24.073751
H   90.066017   70.104073   86.483994
H    6.526052    1.476072   47.221081
H   74.431435   24.074226   25.281788
H   86.417282    8.080671   22.002190
H   85.411156   40.388073   63.897079
H   24.308508   56.698120   79.993294
H   82.338867   57.334301   47.007751
H   34.375828   56.687366   39.965183
