200
TIME:    0.736, STEP:   736
H   24.712141   60.828876   23.820869
H   32.385071   40.119194   10.033122
H    7.741974   90.847992   69.778862
H   34.561813   82.771126   31.529419
H    9.943984   96.300293   46.527214
H   73.482849   39.352776   50.868507
H   10.545379   54.952202   59.251827
H   14.003709   10.303954    7.466657
H    7.571220   80.070312   35.619503
H   93.401077   67.951134   76.508247
H   29.481806    5.189621    8.635735
H   32.828827   55.261795   36.375664
H   23.347881    3.469412   40.963066
H   80.960335   55.299587   66.166679
H   95.675064   75.762825   41.758194
H   14.842968    5.529903   43.623238
H    7.540071   30.948631   91.350136
H   24.784500    7.011568   34.689983
H   81.528229   11.745150   49.785408
H   91.634254   72.893150   18.243305
H   64.037590    1.518097    3.116738
H   78.986794   67.773109   51.460800
H   80.152306   58.935135   37.234962
H   19.114059   92.581276   90.030785
H   24.805161   32.652351   27.711742
H   18.250509   84.348709   90.574837
H    8.501101   68.749153   69.024490
H    5.893616   90.590492    2.036392
H   31.959156   41.453560   35.434006
H   70.635727   34.051693   81.468430
H   12.713924   72.171425   16.801228
H   22.906460   75.131332    5.814974
H   15.138802   19.658182   79.237625
H   80.010780   64.119057   46.959854
H   24.185637   69.305893   30.445871
H   16.859291   38.612930   85.164101
H    0.500531   63.723557   89.678566
H    8.380940   57.585575   92.866608
H   34.713196   28.639748   55.456841
H   85.326035   37.648815   44.321381
H   80.651894   82.053452   17.987679
H   38.027298   32.706070   25.123482
H   67.771194   76.387764   68.745888
H   36.176285   87.323982   36.487385
H   45.724274   91.428085   62.263084
H   34.079872    0.930164   48.082226
H   89.321075    1.911856    7.053658
H   78.040504   65.543037   29.816605
H    6.262452    9.929806   61.523937
H   44.367702   20.039846   84.728821
H   66.409164   64.218163    8.211999
H    2.177830   44.235088   74.205544
H   65.554649   80.237328   14.410246
H   15.024542   92.650742   89.048256
H   56.204269   65.354050   74.732216
H   98.947441   60.130341   94.889923
H    4.014964   18.622414   44.334034
H   72.827621   70.109787   96.350761
H   17.715067   84.059006   19.122684
H   31.631550   93.204018   57.825165
H   48.813133    5.699312   27.744709
H   98.851067   17.599871   52.868629
H   85.111984   35.481140   68.151276
H   36.143974   65.859978   14.741814
H   79.321640   83.473358   38.212147
H   19.282721   35.830925   41.778824
H   67.647804   12.699527   96.082680
H   94.563835   92.577614   97.091499
H   34.165161   12.555976   55.701851
H   42.381802   50.274944   50.956104
H   58.247574   85.170868   86.548676
H   18.200527   10.784577   41.292843
H   93.235977   34.238049   82.886993
H   24.024519   98.062309   75.012611
H   85.184586    8.900664   44.290817
H   65.850746    1.565614   59.636322
H   93.331146   48.415100   65.129707
H    8.184196   15.001829   31.006844
H   15.301958   51.790794   23.950964
H   60.801525   87.900711   70.739166
H   64.419487   21.719145   93.769867
H   48.446346   59.670017   72.523735
H    9.064578   19.107004   75.767387
H    8.499537   78.078590   10.017159
H   21.245560    4.568847   43.725861
H   38.640793   68.420074   17.457687
H   58.085381    3.817663    2.908458
H   71.206734    0.083782   30.150227
H   80.867508   73.264450   78.957031
H   20.959816    8.279737   49.408718
H   20.451172   39.174595   78.548309
H   80.600471   92.887268    9.190434
H   70.822433   11.268135   81.603485
H   37.786350   76.613945   82.723930
H   37.692680   50.216850   88.597618
H   48.731544   38.798836    5.740888
H   86.033867   97.123192   19.690636
H   93.259819   36.145630   53.289738
H   25.778893   64.809402   54.639000
H   75.828575    5.986798   27.371500
H   31.996000   94.140259   92.295753
H    9.015710   84.160599   63.128639
H   33.461014   19.043055   37.433773
H   45.709068   68.855255    9.859515
H   24.681238   20.954483   41.168407
H    7.059630    2.488855   20.668688
H   89.154274   36.255535   53.950882
H   61.828403   53.318260   99.562141
H   85.401665   33.828728   23.116718
H   20.300020   21.144800    7.964816
H   53.720360   91.756599    1.144823
H    5.909698   75.818054   96.160942
H   48.479355   86.030396   83.146675
H   61.543999    8.704201   62.163727
H   47.298256    2.622547    9.381335
H   93.796608   91.288033    1.310278
H   12.181907   15.426887   89.962326
H   38.254635   51.410114   24.063957
H   37.698753   76.335556   59.026127
H   83.872108   56.574276   67.845901
H   45.731331   25.055454   71.266777
H   96.888031   15.730152   62.778069
H   44.194405    0.903295   38.743420
H   96.769745   49.470390   96.144524
H   62.074821   96.671623   76.408714
H   65.893974   75.922729   15.954570
H   83.057777   51.505844   51.899246
H   64.579430   91.460106   39.191662
H   98.571602   34.529629   73.586922
H   91.786087   21.798424   74.951683
H   68.631050   67.475739   22.366299
H   62.661797   90.970810   21.023884
H   90.818123    6.726183    1.065078
H   76.599640   25.719875   55.811565
H   28.928837   92.401642   33.624771
H   49.147507    0.990280   76.374352
H   69.713882   87.828438   80.030434
H   95.449059   48.734196   75.361336
H   59.277832   51.270035   71.432777
H   43.716621   85.302025   81.675507
H   75.173203   48.482544   30.932129
H   34.404556   56.081322   57.809452
H   39.060860   65.889931   82.654388
H   34.985298    8.573311   86.343666
H   63.616268   53.317245   65.287537
H   64.113670   70.520859    6.090961
H   56.462212   94.605675   43.730442
H   29.108864   54.955681   65.979271
H   78.445038   44.083427   93.013672
H   25.273033   94.089958   71.435532
H   58.737885   69.733536   47.599751
H   54.666580   93.385063   32.608810
H   99.217621   13.292324   86.053238
H   23.021347   12.527781   63.695515
H   33.280811   66.978409   69.726189
H   78.226341   44.758762   69.321320
H   64.503159   75.758804   86.628830
H   53.097885   28.701767   21.344402
H   89.680687   99.865402   84.210213
H   58.118824   36.706024   97.275497
H   58.828079   64.258629   70.228020
H   20.315790   20.485897   31.247040
H   86.569695   12.944416   37.025814
H   29.481192   34.750645   49.978363
H   54.205040   38.918503   14.698095
H   20.459320   48.657375   59.590458
H   66.358940   89.544502   57.479816
H   24.065502   53.499519   68.522964
H    0.812749   26.557203   35.685730
H   49.108025    6.716687   84.817902
H   69.889404   11.532409   35.934448
H   29.028009   47.023979   58.981247
H   47.256378   56.141041   76.467972
H   65.118271   62.674461   85.746964
H   48.384644   91.305344   75.909523
H   16.220573   50.340645   23.764618
H   30.322346   68.416016    7.655944
H    6.125975    9.673882   71.222488
H   62.916836    9.848916   63.333912
H   62.706276   59.775658   93.381950
H   72.362274    2.963885   30.187160
H   29.232092   30.711514   87.723465
H   42.797192   89.643951   15.893631
H   62.282578   26.138149   95.437599
H   91.937149   66.821320   76.353378
H    9.643959   40.409073   86.436623
H   48.622986   96.028755   10.255331
H   66.592072   88.234322   42.882332
H   92.254066   63.385258   72.212112
H   58.633163   55.575191   71.969620
H   71.514313   14.614250   75.759468
H   43.586815   98.408447   18.306700
H   15.117721   29.324043   69.169075
H   26.438402   83.326172   43.309193
H   67.873367   32.100857   20.193817
H   76.539078   11.600533   22.770931
H   12.758246   99.084068   20.207991
H   14.494555   87.548393   32.978493
H    5.299037   12.999743   55.834206
H    2.834499   18.188313   90.857803
