100
TIME:    0.992, STEP:   992
H   50.237221   31.049782   98.237808
H   73.675941   58.531178   40.575253
H   96.808380   45.272167   11.692162
H   81.643112   91.778893   85.788567
H   86.285797   52.270699   38.807396
H   12.633644    0.133998   76.987114
H    0.980569   28.322088   68.028465
H   41.917053   74.421982   17.111404
H   29.242744   90.916550   37.644150
H   47.730751   30.627373   46.536842
H    7.981598    6.157851   44.194832
H   17.977642   73.414589   22.317194
H   80.160736    1.689857   26.532442
H    5.963846    2.018703   32.731846
H   92.567116   81.415131    3.086946
H   61.638123   24.969135   50.695786
H   44.311211   47.599533   63.674446
H   22.342758   46.459778   65.155563
H   60.711319   19.968294   15.625719
H   65.796852   84.733643   83.864281
H    5.409893   57.461441   30.320000
H   57.467274   45.409264   34.788525
H   72.499397   86.554344    3.966990
H   26.874008   48.579227   33.400131
H   94.104973    7.501438   43.881699
H   42.110401   98.051804   96.193192
H   76.538086    1.239856   19.651327
H   48.838463    2.742466   99.562637
H   32.741226   39.093693   10.280350
H   39.030376   66.287888   62.249691
H   55.124210   11.001059   30.913132
H   28.392523   25.104881    7.429640
H   40.232975   95.903282   87.164146
H   20.016441   82.811897   29.959192
H   56.114113   83.932472   85.134521
H   58.805573   62.411449   17.231001
H   74.944176   68.206886   86.631111
H   22.990250   40.797756   92.444588
H    6.122869   59.331718   47.048866
H   69.757332   19.315271   16.082197
H   67.448013   90.219887   65.715622
H   42.465874   56.380882   49.405903
H   19.785513   69.448669   73.125587
H   16.013514   29.395819   77.726082
H   70.606010   92.752213   40.996681
H   65.282005   81.852592   87.208427
H   46.554676   79.254074   36.099800
H   56.292393    5.597002   29.957243
H   94.028801   50.291107    4.901826
H   46.695202   45.848270   14.283638
H   43.468937   73.872246   63.876362
H   53.341942   71.689514    8.938072
H   29.457186   27.760681   45.256424
H   53.718105   91.018715   75.591019
H   61.787888   45.469135    8.823900
H   94.807449   11.489401   58.856781
H   59.138863   60.923256   50.334938
H   52.192078   83.205345   88.003250
H   68.512886   80.682678   35.326817
H   93.557495    4.035368   35.394737
H   22.276888   32.438759   37.051376
H   63.703125   18.711960   50.471138
H   41.519798   39.506966   65.503029
H   11.157698   47.190720    0.205270
H   71.697868   81.615044   87.944313
H   40.405098   92.957893    4.840492
H    7.978312   82.658112   14.956001
H   11.841659   74.270493   13.625937
H    6.342211   78.507538   98.015022
H   50.480980   98.037254   99.644257
H   90.531136   27.905722   50.249943
H   92.172379   18.603157   29.250814
H   42.311935   69.236580   36.312489
H    8.356910   86.604065   44.251091
H   10.000840   30.055197   76.598076
H   49.111980   71.151634   29.180988
H   57.022877   40.566521    8.587170
H   78.586288   85.856575   69.225845
H    9.100618   50.596531   28.749611
H   50.876022   54.928909   35.459412
H   30.294582   39.544353   39.277676
H   15.753296   50.706070    3.826752
H   80.563133   23.814127   24.382847
H   18.409994   97.048317   72.821815
H    4.026779   86.833740   51.589149
H   28.460339   45.493084   10.670820
H   33.408165   31.226448   70.845459
H   71.924408   25.872158   85.429695
H   76.269234   38.938713   20.084038
H   78.631058   68.465012   59.676403
H   64.619270   26.997324   54.410961
H   51.684910   70.114006   52.423393
H   48.932243   57.352875   95.658379
H   43.108711   73.405846   93.704308
H   39.441746   60.873268   38.880852
H   75.856705   56.557854   16.211098
H   83.862259   24.609083   80.138123
H   10.507438   24.683960   40.164215
H   61.455437   41.126415   61.955090
H    0.847983   53.224026    2.141848
