100
TIME:    2.486, STEP:  2486
H   49.204010   94.042534   96.870010
H   32.117683   39.531822   34.816059
H   22.486898   52.756607   94.154823
H   81.893875   30.227823    3.896309
H   72.904175   72.021378   98.299850
H   89.468758   98.514824   24.942507
H   22.679569   29.204163   84.861290
H   24.491600    3.673262   79.937996
H   92.517311   47.274673   43.602467
H    6.905489   52.078636    5.037291
H   69.013367   66.272141    0.285756
H   60.959106   48.300919   15.972883
H   85.127708   11.301022   78.040398
H   31.989006   97.413307   46.426411
H   10.738914   47.967499   31.272070
H    1.567078   94.294342   26.682142
H   24.196747   46.400154   99.697876
H   54.269440   73.806404   13.359566
H   83.985069   82.644241   94.335480
H   25.541885   53.019924   85.591103
H   16.753860    8.727634   89.769073
H    0.715591   47.384186    7.572378
H   52.552345   74.403740   61.223038
H   88.065155   66.497375   22.441559
H   40.669670   89.011414   54.903870
H   35.260014   53.532665   56.158302
H   47.708618   39.137112   49.298344
H   22.780733   72.477791   48.946712
H   65.226425   74.641426   39.657066
H   96.318306   29.311752   81.018669
H   13.895459   44.979092   12.695320
H   22.724586   83.826286   69.122597
H   45.468418   86.595009   21.755468
H   83.140312   45.895645   67.019821
H   18.976402   70.997559   76.107872
H   88.702164   79.773247   12.094049
H   18.239094   13.493044    4.352452
H   61.238205   13.453197   97.872414
H   40.138565   27.250101    3.400690
H   29.040350   79.452583   33.627216
H   65.349052   41.483631    0.913810
H    8.193695   23.430542   19.595659
H   32.654209   78.407745   81.039452
H   20.611132   54.437325   23.802217
H   41.013432   33.805965   68.844704
H   46.014751   10.333424   93.264076
H   61.153767   60.034943   49.321281
H   56.372181   20.979029   22.397484
H   37.697525   26.559017   45.307198
H   78.024071   68.585609    9.791279
H   43.354954   29.636618   79.628830
H   25.947180   33.056629   10.859837
H   60.449203   36.423401   58.487854
H   19.124218   66.649117   41.516144
H   42.850266   76.441650   21.500441
H   96.676773    9.919283    7.997498
H   53.852276   17.814827   92.426643
H   40.943939   42.115829   49.522537
H   86.342506   43.808758   20.631296
H   94.969101   18.869818   92.902840
H   16.519274   62.959469   20.568089
H   10.680454    4.803720   82.871124
H   42.856792   37.627144   63.008957
H   13.748106   55.317719   59.648777
H   30.995026   62.292439   27.077188
H   48.626259   18.686470   93.177071
H   88.111763   34.310566   87.085892
H    8.640779   59.714294   85.047775
H   80.804497   71.158226    4.313962
H   80.749817   73.182686   96.498322
H   43.091347   26.252462   32.328777
H   68.984192   69.019562   38.634964
H   44.900146   95.339775   98.003410
H   75.481926   92.060287   55.458183
H   82.031151   32.181469   89.853256
H   84.428764   66.903313   28.653683
H   92.667511   11.076567   35.016117
H   48.777126   88.167320   51.733547
H   80.724945   46.216564   45.415878
H   77.607185   73.562256    6.750107
H   59.531261   55.000469   28.570732
H   27.850830   60.463028   78.899513
H   75.091019   48.751770   66.679108
H   21.184269   24.891817   36.361176
H   31.282475   93.382996    6.762633
H   94.073914    0.368458   14.418746
H   33.189049   22.600479   42.085449
H   95.974854    6.259327   69.892647
H    7.273658   55.755486    7.861226
H   46.543003    6.993073   13.086974
H   25.760010    7.669082   85.961502
H   62.229725   82.471001   80.891747
H   44.790195    2.123381   11.238758
H   87.509010   64.028587   94.437080
H   13.609104   27.048790   73.212578
H   99.254959   97.562508   39.043945
H   65.275345   10.346894   94.217186
H   15.992877   37.404480   16.258194
H   90.286278   47.566463   36.809624
H   93.630295   14.848360   58.248444
