100
TIME:    7.804, STEP:  7804
H   89.569817    6.357184   92.001236
H   84.949539   27.751110   70.173538
H   13.914553   35.354446   31.732483
H   82.786484   11.125294   12.398354
H   25.268465   98.282356   54.106415
H    6.997243   92.753441   51.602814
H   43.962101   88.300873    0.736117
H    6.507286   63.745953   91.656120
H   61.790657   35.970688    8.852512
H   61.604836   28.438875   13.277054
H   74.345963   80.253555   88.028656
H   57.986237   14.864557   37.431343
H   46.114601   89.620285   49.566410
H   68.673820   81.021767   51.128735
H   75.393379   72.941086   75.606476
H   87.740814   29.162720   85.240509
H   96.555672   98.145660   83.817261
H   67.951584   15.096167   29.001064
H   66.811401    5.739093   74.505981
H   82.262985   40.086269   47.665199
H    1.176304   79.304688   45.428646
H   10.557420   54.443909   54.695587
H   81.547554   31.153193    9.068038
H   93.953644   30.186739   27.480564
H   50.468086   67.264938   94.174232
H   10.810848   96.041550   56.492043
H   89.131332   18.073370   54.814022
H   74.062248   20.704031   24.730566
H   80.861137   57.131824   88.273338
H    0.233919   97.690109    3.784600
H   23.191408   21.855732   91.951439
H   58.506588   36.894787   76.808708
H   20.059870   97.505074    0.842904
H    7.838962   58.532661   42.980560
H   86.735573   68.797722   99.852493
H   51.025898   96.671204   94.891487
H   28.304474   18.736044   23.389860
H   41.438377   16.133678   73.147194
H   15.661687   11.381655   88.047020
H   28.144207   81.599213   52.037659
H    1.903954   23.957327   26.203337
H   42.535393   72.206543   78.367516
H   78.448456   10.301735   65.163307
H   81.031570   43.632225   43.768940
H   79.716164   23.986973   23.919590
H   77.388939   11.764190   14.865881
H    2.705060   49.246529    0.374159
H   56.663937   75.748657   51.444836
H   93.150398   86.122932   33.168800
H   89.586670   49.515308   37.876610
H   42.965733   16.217684   35.692200
H   84.402695   39.585499   61.752838
H   70.750587   67.258972   49.626991
H   95.971619   79.875717   76.185562
H   19.428886   42.510307   66.725739
H    3.315632    4.324673   26.960220
H   90.992004   64.365303   98.212685
H   44.953537   39.896156   12.541427
H    5.758869   68.516045   12.372810
H   44.034744   27.629459   41.646263
H   51.983135   15.649811    5.935506
H   21.938728   55.303543   42.248344
H    3.873611   74.751984   98.326752
H   78.927055   84.274750   15.259212
H   42.077255   37.551731   22.321672
H   21.935806   54.313347    7.617471
H   61.439026   18.167461   43.839825
H   41.290184   63.856499   39.278931
H   45.853241   89.040672   70.780518
H   88.519936   40.618557   85.291443
H   74.220055   64.418091   68.537971
H   30.627289   92.475975   28.076582
H   98.155228   32.294941   61.657925
H   58.408916   55.503468   39.465881
H   38.397095   39.806171   93.006317
H   10.146600    7.735580   70.818184
H   75.552452   50.345177   29.145983
H   98.626434   40.437801   45.426090
H   35.743088   30.595913    4.748957
H   16.809883   83.898308   48.599586
H   63.591255   10.018319   46.417328
H   26.902725   95.080704   34.121815
H   11.494714   37.628574   73.157181
H   87.051949   79.964233   50.641766
H   72.340164   60.732418   91.242821
H   71.684494   95.707397   83.716568
H   88.366295   35.938103   95.668098
H   81.538811   80.590637   14.662613
H   17.639210   59.657890   64.364143
H   76.360840   88.197769    3.192283
H   43.394550   94.825600   98.267990
H   55.715870   82.414963   82.223473
H   85.705017   61.679577   22.499880
H    1.492856   86.632530   53.010494
H   21.665543   50.695503   95.414825
H   38.500015   87.560974   64.362160
H   43.157249   15.535068   88.373283
H   23.213793   72.600243   22.216196
H   36.948357   70.501762   91.370094
H   23.948076   78.369308   45.956608
