100
TIME:    4.484, STEP:  4484
H   14.087833   10.815660   95.040787
H   76.638435   47.846024   60.837631
H   56.830574   96.501427   70.710274
H   82.229233   47.909966   94.379280
H   55.008270   32.169876   44.124344
H   58.491192   96.350243   22.811445
H   17.964291   64.120224   41.107647
H   67.452736   76.524445   96.487373
H   43.402657   55.175095   17.834780
H   52.304131   80.766960   83.278503
H   83.164276   46.665913    7.828270
H   84.698814   48.450310   73.753151
H   57.933792   90.433357   79.469238
H   33.059105   91.254921   98.473526
H   35.043770   69.498474   35.230274
H   21.232529   19.542168   60.830017
H   63.530525   78.551987   81.584557
H   96.956398   76.640709   44.087841
H   15.108192   66.464630   99.598145
H   71.708977   10.593332   21.624155
H   98.189812    9.820431   35.540596
H   92.265793   50.036560   37.424240
H   25.876167   58.154137    4.056869
H    2.429302   90.460205   74.052811
H   69.210602   30.555969   69.655190
H   26.105719   94.096375   68.762520
H   75.419151   56.084072   88.937172
H   54.194279   65.737671   14.987754
H    8.671163   55.915432   45.210609
H   72.929855   79.860527   39.853340
H   92.528358   24.144764   54.619133
H   48.879650   28.623993   84.157722
H   86.204323   40.411125    1.751087
H   67.561157   62.790894   82.847801
H   69.311050   19.964256   97.773727
H   62.424061   36.635120    5.330668
H    9.873297   40.322739   61.786976
H   78.659340   76.893990   38.864605
H   55.803204   83.719353    9.779554
H   40.850716   92.405998   90.826111
H   28.801647   10.041974   47.986797
H   28.624771   13.101718   13.463640
H   49.864155   90.389160   25.358202
H   93.025711   87.916473   19.156851
H   67.700920   54.973976   39.818989
H   20.237942   48.442249    1.375781
H   76.765915   68.692955   68.509300
H   56.478886   41.553711   46.022423
H   96.103867   61.083736   65.607697
H   19.920528   98.981209   70.046486
H   43.202518   36.742592    0.695267
H   23.046183   47.657955   79.695984
H    1.882982   48.008484   42.445660
H   72.851158   34.044441   29.682171
H   83.771973   51.555531   38.485691
H   99.176712    7.816990   39.980865
H   80.517563   60.162804   82.453102
H   92.167862   53.429314   98.056747
H   43.919724   28.229427   67.245094
H   63.119610   72.443970   36.074959
H   42.555176   70.043846   64.786720
H   39.768700   86.205643   92.466736
H   78.479774    1.302578   25.989128
H   50.948418   66.189423    5.397053
H   10.299287    2.713933   13.144389
H   25.885750   19.359749   11.312516
H   27.809141    3.387223   83.549362
H   70.625175   73.981827   80.563728
H   80.384537   27.594681   79.004395
H   21.232546   73.675781   92.291107
H   79.644890   90.308258    8.358223
H    4.241337    2.709593   84.919548
H   14.626135   96.510597   46.780022
H   31.499111   65.624535   36.729454
H   78.362190   35.032009   41.316006
H   31.662394   94.954796   94.213547
H   74.073715   37.903019   70.350624
H   42.646801   57.523815   62.076035
H   76.536110   40.347805   67.714622
H   79.621307   64.747185   34.620537
H   98.617416   75.670700   47.986767
H   77.765511   73.511490   11.828058
H    1.496397   82.107605   56.978230
H   58.640945   95.864326   53.872078
H   33.996323   68.409187   13.078809
H   48.094151   73.760780   53.165817
H   66.630943   77.329590   37.358032
H   28.132036   46.294258   49.111397
H   48.739853   44.509880   91.517464
H   69.893539   24.791389   84.509155
H    7.526470   15.555336   28.155680
H   10.067878   32.720276   18.967302
H   72.886635   62.060806   65.759140
H   80.623642   85.220779   29.152102
H   79.064674   48.080788   19.124241
H   64.281601   18.663284   35.844658
H    6.683824   25.008007   79.309860
H   23.325018   54.416260   84.283028
H   95.105835   56.179058   69.455772
H   17.730104   63.563618   65.783188
