100
TIME:    2.826, STEP:  2826
H   26.211174   62.862724   96.558731
H   22.659981   57.967339   56.263203
H   28.331167   77.217972   90.165260
H   81.950943   16.218958   85.260681
H   69.858826   99.273880   89.080795
H   84.197762   98.146477   58.614872
H    4.860476   52.163605   11.449821
H   97.768265   33.086788   48.720600
H   84.159462   14.585131   22.200016
H   97.614769   56.960533   18.352190
H   37.387390   79.952866   67.533997
H   47.981354   65.343460   91.771690
H   63.499046   90.730316   44.247360
H   15.154017   96.365334   72.300667
H   14.875038   17.597631   14.928567
H   87.896606   64.556793   98.458351
H   96.856941   68.887451   30.650278
H   61.535217   57.272285    1.571159
H   89.282005   96.906021   12.247942
H   16.382492   45.800838    8.739801
H   96.577881   74.880585   80.539642
H   33.311722   47.835541   78.618286
H   48.012856   71.638542   51.495560
H   56.475494   70.575134   97.189644
H   28.509399   62.044441   57.412262
H   33.701023   43.403118   24.290770
H   18.389305   25.003080   56.045322
H   94.092552   88.347847   60.186489
H   72.619308    5.489070   23.585360
H    9.355210   20.896835    8.047779
H   27.275389   75.467896   85.794823
H   44.192482   74.430840   37.647072
H   69.418182   61.718605   52.385353
H   97.505852   14.736614   52.695786
H   10.524293   45.296265   96.813133
H   18.264103    6.481379   10.925454
H   50.848740    1.040614   31.142942
H   47.186539    7.230246   21.864826
H   25.785995   19.842951   70.451889
H   97.016098   47.622940   60.379078
H   42.114330   53.148823    8.925605
H   77.636375   38.691010   35.568466
H   35.582829   80.446625    5.599016
H   98.900513   60.136330   57.044571
H   11.521410   20.392422   97.938942
H   41.628307   16.818409   94.644081
H   63.812611   78.524933   52.587120
H   56.390339   24.479624   43.434776
H   47.635117   98.400993   31.743227
H   85.152367   73.758034   86.010529
H   43.329014   96.811066   83.213730
H   42.470448    1.507068   88.539940
H   67.500984   38.394836   38.739777
H   11.251446   61.101799   56.519806
H   15.781942    6.246977   24.384962
H   97.102188    9.561960   96.423096
H   75.407143    8.003812   24.763680
H   15.626567   10.006602   40.765213
H   13.157974   58.174297   94.529503
H   72.531052   45.004307   83.232430
H   37.967354   47.149075   94.059097
H   98.614342    1.638399   67.488739
H   65.919777   14.441042   39.683762
H   37.095634   57.167236   50.416752
H   44.491482   35.135914   58.741875
H   27.739418    1.784104   13.280098
H   60.833321   46.063953    3.500926
H   85.154518   79.158875    1.301742
H   97.748466   46.727989   82.990913
H   87.639465   90.282295   95.782379
H   32.295143    3.118281   28.249619
H   40.950439   57.735687   63.529526
H   22.731329   78.520317   89.287590
H   68.000847   70.545700   35.250969
H   98.425194   32.666546   15.627872
H   92.464958   88.692863    5.776209
H   23.537096   81.608292   41.028996
H   64.750946   65.936790   70.510574
H   97.030792   45.217876   49.210892
H   60.932991   55.045071   77.458817
H   66.184006   58.517925   48.891865
H   53.362762   62.683487   50.469337
H   96.600418   54.427429   99.062531
H   44.574314   53.986053    5.306022
H   14.726357   72.117432   73.803459
H   86.250427   12.857281   38.029324
H   55.896873   97.879692   58.297913
H    1.447840   79.038086   66.354439
H   14.330021   36.824516    5.079492
H   16.481876   93.004959   25.240978
H   39.674194   26.028069   93.141678
H   87.386459    8.038038   87.371544
H   66.605682   12.310675   37.542763
H   20.371075   84.650841   17.361713
H    7.729832   96.593079   81.025688
H   27.337631   84.135994   21.482605
H   38.287430   29.858730   74.663658
H   17.240591   40.299377   10.817909
H   74.089378   49.032070    8.330162
H   14.745438    6.115097   25.501604
