100
TIME:    4.728, STEP:  4728
H   97.587563   88.439705   94.817398
H   69.899544   61.068771   76.222046
H   61.024696   14.055331   67.847176
H   82.270187   37.857475   81.005745
H   52.822784   51.727554   37.508316
H   54.706615   96.085899   46.976162
H    5.176563   80.595139   60.188763
H   48.274818   97.634674   74.085213
H   37.404671   31.715561    2.475468
H   45.635979   84.270439   92.832092
H   60.467987   56.483845   84.324387
H   75.387230   60.680840   56.384682
H   42.363602   75.678535   55.224121
H   20.978352   90.502846   17.042528
H   38.011116   47.703186   23.501183
H   11.421112   98.200760   40.576111
H   43.909554   94.691818    3.796842
H    2.173154   64.767601   35.628857
H   18.908592   76.699554   12.452471
H   65.133904    5.411646   38.236824
H   83.710503   85.529938   28.918549
H   15.658310   50.360474   16.645370
H   22.618416   56.169701   97.075699
H   79.759048   93.386597   55.931435
H   60.483551   11.204926   71.457191
H   24.993429   86.884644   45.818256
H   54.378807   45.940365   93.777260
H   33.607151   77.126770   23.053888
H   13.977109   78.053246   33.676308
H   82.286118   73.821587   59.250923
H    2.130641   46.024158   35.314629
H   64.286018   21.883240   61.569405
H    3.390631   22.559141   23.732534
H   77.870544   40.429688   72.568199
H   63.246048    1.519432   12.631226
H   83.634811   55.746021    4.563003
H   33.276001   31.387127   81.013290
H   68.573341   72.429939   56.082287
H   45.503124   78.402702   86.134186
H   17.869032   69.564507   10.023134
H   12.126614   18.413465   53.735332
H    6.694970   24.052633   24.925737
H   51.965870   91.852356   42.982056
H   77.444351   92.004486   43.014259
H   46.536381   45.347786   60.698383
H   17.090023   53.096180    2.367687
H   78.672165   81.962242   70.851158
H   56.491917   44.066833   61.119774
H    3.236661   40.876369   55.873840
H   25.037991    2.694533   52.980797
H   43.183903   13.185513    3.267494
H   34.903694   25.015940   63.678978
H    6.944315   49.423279   28.273756
H   67.199425   30.062538   40.449303
H   64.344604   72.940193   40.561344
H   99.482010    7.560326   31.674530
H   95.987228   53.122337    5.659560
H   73.998917   30.386705   91.772079
H   63.162796   38.539154   48.512413
H   47.018871   91.197449   29.135017
H   57.946655   58.696575   45.763237
H   31.108763   83.934525   81.427612
H   95.044044   84.652634    9.257317
H   67.704018   67.518585   98.772064
H   19.984118   83.226837   35.867512
H   10.897049    7.230066   25.739584
H    8.231916   11.822598   95.329391
H   53.770500   87.936172   92.228340
H   92.544327   10.062393   63.702232
H   26.175951   85.947266   91.777313
H   71.897026   73.706757    5.431105
H   84.121735   94.611664    2.783358
H   98.716370   84.440163   40.523277
H   26.126705   50.182987   22.231567
H   90.127327   35.380123   59.812588
H   37.431404   10.592752   77.794479
H   96.226425   16.754368   74.665749
H   54.110363   41.568279   75.550362
H   88.237953   39.631100   70.436241
H   67.655121   51.457523   13.599716
H    3.391623   78.194992   62.570324
H   96.072212   75.104996   91.424706
H   16.930597   86.188171   80.214935
H   75.428009   16.744116   31.587196
H   22.114992   53.146690   89.425911
H   42.477787   82.722389   70.109848
H   82.927147   59.588806   48.992859
H   32.059036   26.759169   46.574074
H   53.803329   30.924200   89.521858
H   48.320286   14.751930   93.232483
H   17.511955   28.730614   33.308514
H   28.123018   51.069870   23.616537
H   88.527565   69.383736   84.628036
H    4.206312    0.020279   45.602978
H   74.846352   26.224068   24.730366
H   84.434982    9.028379   23.241814
H   87.316185   39.010754   65.277328
H   24.220434   56.493774   80.377449
H   83.482178   57.230846   49.018066
H   32.885166   57.303150   42.277256
