100
TIME:    7.773, STEP:  7773
H   91.666252    9.199973   92.029617
H   85.805710   26.071171   68.219009
H   13.381693   33.124146   32.096386
H   82.781281   12.402573   14.097628
H   25.546247   95.797569   54.946976
H    7.478011   92.787025   48.532661
H   45.586697   86.207748   98.311874
H    8.943825   61.064152   94.502296
H   62.552696   38.951202   10.803848
H   62.451546   27.993761   12.063160
H   77.229507   79.006195   91.014847
H   59.169502   13.310738   39.637993
H   48.091362   91.496765   52.646969
H   70.208778   81.117317   48.769535
H   75.016853   75.710159   77.097443
H   88.987228   31.874084   87.813751
H   99.048500   96.095108   80.995209
H   67.288879   16.604599   30.075653
H   66.328445    4.438547   72.872635
H   83.098343   40.744480   45.554573
H    3.015877   82.390686   46.269917
H    7.585419   54.402756   57.335526
H   81.961449   31.405195    9.955014
H   96.833878   29.815889   29.782883
H   51.576851   69.723236   93.945290
H   10.957012   96.955429   59.409409
H   91.804382   19.362001   54.198856
H   76.678062   19.257055   23.705881
H   80.187080   54.319233   89.738762
H   99.045227   98.457352    1.320254
H   21.971365   19.075897   94.404060
H   56.549221   37.751194   79.678535
H   17.876280   99.773216   98.050179
H    6.529103   61.373634   44.286575
H   87.507072   71.144859   97.966553
H   48.331089   94.243179   94.988930
H   25.331173   19.871416   20.947172
H   42.719559   16.701069   70.959465
H   16.970287   12.057013   91.051186
H   31.064056   84.501205   49.598518
H    4.022533   22.893736   25.472990
H   45.147896   72.084976   76.784782
H   78.181671   10.115778   62.924129
H   83.011169   43.111900   40.738049
H   82.405296   25.209972   21.266762
H   77.789116   11.173030   14.739939
H    2.462725   47.560677    0.076436
H   56.662045   75.429367   49.526730
H   92.244087   88.690498   34.405518
H   88.935791   49.043468   40.044235
H   42.967861   19.210615   35.365341
H   82.896118   42.462185   63.787781
H   70.107750   67.079224   51.427315
H   96.689667   80.381378   74.817581
H   21.897236   39.793503   66.462265
H    3.277021    4.357282   28.015533
H   89.026596   65.259789   95.264336
H   47.261887   42.823692   13.339948
H    3.313909   67.206245   14.752705
H   46.080330   25.246609   42.527977
H   50.027660   17.091450    8.352473
H   23.038979   55.592087   43.651093
H    1.769000   76.867340    0.452515
H   76.798454   84.105881   16.100903
H   40.846687   40.027767   19.434698
H   23.840076   55.854454    5.784450
H   63.926178   17.095711   42.343182
H   43.431557   62.083611   37.796951
H   44.308113   91.268135   72.724640
H   87.890343   39.061604   85.357193
H   75.204414   66.527298   68.909767
H   33.180019   93.505272   25.804300
H    0.176456   33.828243   62.452839
H   59.091251   57.465328   41.307831
H   36.903763   39.760525   90.655869
H    9.413711    5.748738   72.904213
H   72.737022   53.028397   28.596212
H   97.169998   42.464703   43.713985
H   34.256615   30.686970    4.403000
H   18.330059   85.586998   51.270271
H   62.984367    9.697610   44.564499
H   24.576519   94.879669   36.715160
H    9.533917   37.110142   70.205048
H   84.919090   77.311523   53.473042
H   73.849579   62.671574   94.247932
H   72.397812   94.568832   81.563843
H   86.295876   38.192055   94.189903
H   81.040245   83.071167   14.984032
H   16.995781   61.383949   64.617683
H   79.101532   89.473038    2.084140
H   42.125904   93.151573   97.613327
H   53.422184   80.083435   81.632668
H   83.717850   60.749378   20.102602
H   98.496803   84.751793   50.920208
H   22.201595   53.472382   94.702454
H   35.939545   88.785156   65.963341
H   45.617912   13.756089   90.156105
H   23.273630   71.066231   22.838575
H   38.425133   70.367897   93.966515
H   22.022638   79.164932   48.943035
