100
TIME:    5.902, STEP:  5902
H   18.194300   80.778740   93.742569
H   37.475533   24.684202   50.246174
H   81.212250   98.518036   54.064991
H   82.467239   89.487213   16.653786
H   42.307373   45.828751    5.678438
H   36.497219   94.814018   63.242092
H   43.646038   59.870205   51.997166
H   56.000732   99.200668   66.292778
H    8.545509   18.840286   28.576654
H   13.556482    1.127435   38.804905
H   51.265366    3.722459   71.238274
H   30.578087   19.527134   72.818352
H   67.448044    4.684349   38.569267
H   62.849037   86.884254    6.384060
H   52.288429   42.836807   67.070282
H   64.217255   95.518410   43.123749
H   49.503426   72.341286   10.670691
H   27.278357    7.647362   94.932167
H   37.192852   25.949183   74.301422
H   33.506737   80.476601   18.168177
H   14.043663   68.655334   97.053947
H   28.210831   51.918976   16.668427
H    6.942606   46.621635   63.487289
H   70.677849    7.433321   68.740463
H   18.495003   18.101311   80.127480
H   19.641676   52.182526   35.420197
H   53.143448   97.137039   17.070631
H   34.548359   31.925102   61.864174
H   39.504478   84.567780   78.181732
H   27.301575   44.765373   52.580460
H   48.337090   51.298801   42.431480
H   38.413029   89.446533   52.886345
H   86.086174   36.663460   29.495726
H   27.475674   32.839561   23.108953
H   34.064438   12.773449   84.118835
H   85.688599   47.698921    0.870493
H   45.877365   88.390747   73.519875
H   20.052841   50.945827   38.928959
H   95.945862   52.821770   72.364723
H    7.291368   59.658634    2.391073
H   31.891197   58.692688   81.394264
H    2.825495   64.747833   81.266472
H   62.078220   98.892487   27.782066
H    2.482039   11.707785   57.801468
H   44.700710   99.030685   61.160503
H    1.941053   75.488449    7.138716
H   87.844040   45.809219   82.118950
H   56.554615   56.158661   33.760212
H   37.550735   43.645737    9.040027
H   49.660534   20.563566   70.869553
H   43.096333   99.843079   15.643704
H   91.959206   16.077618   86.606422
H   31.297367   56.230530   60.091366
H   40.014153   10.904305   92.256065
H   70.868858   75.828537   50.548298
H    0.946688    6.325392   91.708786
H   70.411919   19.247307   17.316902
H   86.580719   19.516592   61.533554
H   55.754036   88.142693   58.384880
H   69.546585   81.435623   95.743675
H   32.003834    4.102413   54.228672
H   89.444405   73.007095   28.307121
H   74.748039    4.540823   28.752594
H   48.319901   73.913818   66.903381
H   66.585266   89.461227   45.196857
H   38.776665   48.867119   95.155632
H   14.039886   52.408352   52.011124
H   72.674202   55.079197   48.352329
H   51.058178   25.706245   90.069153
H   49.957642   44.996071   89.305206
H   34.618370   93.828598   91.349434
H   87.320206   55.649109   88.738724
H   22.170048   26.369370   10.419106
H    0.285942   75.880699   52.476463
H   46.729656   37.055065   48.809952
H   65.188484   85.835869   98.800354
H    2.817879   14.999556   95.427864
H    9.267024   64.804497   40.385597
H   44.534519   36.182690   83.531242
H   10.085585   87.509438   12.458526
H   26.365091   90.340561   32.737186
H   84.173386   82.746124   93.238335
H   91.189049    5.821263   92.019882
H   56.196960   17.205906   24.360767
H   64.950768   79.711922   75.619720
H   15.454792   25.843636   51.636047
H   61.335960   74.229301    4.973608
H   50.949394   32.789318   34.383209
H   78.166122   65.558281   79.920052
H   44.522823   66.453537   35.199814
H   65.556816   92.122864   58.101238
H   14.987131   39.365768   45.981941
H   63.783051    4.607389   75.415298
H   17.673328   71.240669   24.761721
H   54.549995   21.064144   51.707371
H   81.402573   62.667999   62.602951
H   94.129662    6.384409   97.759613
H   26.885103   78.488724   60.396782
H   27.555237   62.291500   50.683456
H    5.807940   27.180347   29.182163
