100
TIME:    7.386, STEP:  7386
H   17.837301   44.689125   92.383926
H   96.494034    5.099359   43.816479
H    6.729469    5.282771   36.640400
H   82.716324   28.347958   35.310703
H   29.014048   64.777809   65.440430
H   13.479859   93.206291   10.206116
H   65.868210   60.077007   68.047974
H   39.361259   27.584896   30.035759
H   72.065895   76.159561   35.164265
H   73.021767   22.437014   96.909523
H   13.227295   63.434315   28.292929
H   73.939255   93.912811   67.185524
H   72.768990   14.921082   91.106346
H   89.370995   82.310158   19.317593
H   70.316353   10.278893   95.710480
H    4.547678   65.722412   19.938410
H   30.169014   70.496277   45.765072
H   59.013981   35.436127   43.489418
H   60.301098   88.204575   52.483814
H   93.526840   48.961498   19.205790
H   25.981003   20.917442   56.772228
H   70.483353   53.889008   90.292175
H   87.128456   34.552361   21.028246
H   32.791740   25.186251   58.526093
H   65.418526    0.412354   91.087196
H   12.781704    8.363083   95.826851
H   25.175524   35.449425   46.519207
H    9.332911    1.193223   10.913554
H   71.772240   19.207743    8.032423
H   84.205582    8.036121   70.554466
H    6.740055   84.372406   25.022194
H   32.113705   48.442471   15.505013
H   90.616707   28.087049   63.186165
H   90.177437   96.839973   60.590698
H   97.138374    0.446218   74.422714
H   14.690172   63.932037   96.205391
H   88.212479   34.045044   90.453339
H   58.713661   23.784298   43.650337
H   33.306889   20.488092   28.553741
H   67.513924   20.730482   19.149229
H   30.470285    9.616002   16.355436
H   77.762047   70.567352   57.027187
H   74.851166    7.794315   34.972095
H    7.723446   36.616234    2.899865
H   15.975376   40.477741   88.149727
H   82.784874    3.792862   13.167692
H   99.437790   26.514332   96.362053
H   56.638424   71.443390   25.581341
H   80.929817   20.741817   49.844536
H   80.810303   43.153080   67.104256
H   42.994434   56.573013   31.285141
H   64.088211   78.373184   89.191742
H   62.081944   64.835266   73.902321
H    5.651817   86.693985   57.739883
H   52.710800    5.878183   63.172352
H    2.795013    4.764368   41.189926
H   64.490692   76.426430   58.457527
H   76.079025   79.370674   23.309122
H   72.792778   50.852505   44.462379
H   71.618034   95.499939   53.535179
H   25.615377   35.088623   38.525032
H   36.774361   59.194229   61.162819
H   75.496864    3.275277   26.990265
H   50.223743   81.997742   26.609119
H   25.485062   70.937622   83.394768
H   47.613708   75.093437   82.901810
H   94.975464    3.716673   23.658625
H   70.164177   39.951103   19.296112
H   25.018936   19.075470   96.994812
H   80.030586   19.624796   86.178009
H   87.493034   92.858368   73.551216
H   65.047264    6.355233   97.437630
H   25.410456   52.969791   72.374084
H   67.610680   81.959106   64.302490
H   18.262289   39.190678   61.313175
H    0.264176   80.946678   98.945930
H   37.589558   86.523384   21.732950
H   78.988037   67.769081   22.340288
H   15.699662   31.823711    0.084079
H   37.308151    6.668734   84.610756
H   55.408058    5.693917   21.434021
H   95.536537   92.369980   69.090614
H   85.056206   30.638098   33.348541
H   58.293392   44.195431   88.820396
H   92.692917   86.882530   31.762423
H   81.302780   80.355133   54.689499
H   60.449024   66.330101   75.736305
H   74.816216   14.038450   18.996582
H    8.963300   82.931847   67.782845
H   13.316823    5.394329   88.248657
H   26.288288   72.253242   89.440598
H   24.788103   50.976944   74.257133
H   58.910313   49.136898   90.175301
H   61.093803   61.272911   24.825403
H   28.893608   88.136520   85.809296
H    3.974913    4.067433   85.952278
H   76.336510   91.547272   12.413033
H   24.020632   51.917690   30.608278
H   56.861015   68.696739   26.382275
H   97.985008   89.097397   86.223450
