100
TIME:    4.919, STEP:  4919
H   84.670815   70.923988   94.642532
H   64.624428   71.418320   88.264465
H   64.307938   27.796135   65.605980
H   82.302246   29.988331   70.537117
H   51.112015   67.037048   32.329376
H   51.744099   95.878975   65.892113
H   95.165977   93.491486   75.125214
H   33.262596   14.158486   56.548473
H   32.709526   13.351692   90.453224
H   40.416237   87.012917    0.310565
H   42.701630   64.169189   65.925598
H   68.098244   70.254738   42.788872
H   30.175461   64.128654   36.245361
H   11.521586   89.914131   31.578241
H   40.333916   30.642179   14.319937
H    3.740962   81.495255   24.721283
H   28.550514    7.325216   21.184324
H    6.257503   55.474827   29.007605
H   21.883495   84.711319   22.514536
H   59.988159    1.355497   51.241005
H   72.376289   66.516205   23.734509
H   33.969666   50.614029    0.380013
H   20.068291   54.616310   91.611145
H   62.012928   95.673798   41.745453
H   53.652130   96.057556   72.867775
H   24.122744   81.239395   27.857920
H   37.907913   38.000004   97.566017
H   17.491161   86.042007   29.367998
H   18.130348   95.382439   24.648003
H   89.610077   69.094383   74.435097
H    9.648023   63.150799   20.203316
H   76.345924   16.606667   43.887566
H   16.844704    8.585184   40.939323
H   85.940598   22.925629   64.521461
H   58.498444   87.081314   24.261253
H    0.238308   70.705788    3.962090
H   51.594643   24.391769   96.063400
H   60.678768   68.935539   69.560661
H   37.440357   74.240898   67.624649
H   99.879005   51.683479   25.050657
H   99.073456   24.966558   58.235210
H   89.528770   32.624748   33.897808
H   53.611065   92.997726   56.777504
H   65.247467   95.208069   61.689072
H   29.969221   37.812531   77.042503
H   14.625669   56.739216    3.144109
H   80.164352   92.349266   72.684334
H   56.502117   46.034073   72.937782
H    8.819405   25.058308   48.254066
H   29.043873    5.601675   39.622513
H   43.169331   94.745422    5.281001
H   44.186150    7.292562   51.139648
H   10.906165   50.530762   17.180712
H   62.775726   26.945557   48.877831
H   49.137115   89.680672   42.186138
H   99.720993    7.359412   25.172440
H    8.095946   47.611153   23.825401
H   59.776505   12.348652   86.852524
H   78.227394   46.609207   33.848465
H   34.415424    5.877954   23.702522
H   69.994904   49.814854   30.871964
H   24.330530   82.156723   72.786331
H    8.010812   71.619308   96.159851
H   80.818947   68.559036   93.587296
H   27.565275   67.972717   53.654270
H   99.164207   97.735130   37.032997
H   92.907532   18.425735    4.550952
H   40.576881   98.859451    1.359245
H    2.063113   96.338371   51.722473
H   30.045584   95.553223   91.375122
H   65.832100   60.711319    3.139783
H   68.372162   88.272781   16.767525
H   86.263016   74.991585   35.625580
H   21.922642   38.095394   10.883511
H   99.336922   35.652622   74.291473
H   41.947311   22.834082   64.941849
H   13.567911    0.199668   78.043571
H   63.083889   29.078667   86.097679
H   97.398003   39.070072   72.566689
H   58.288147   41.054470   97.145081
H    7.129195   80.170975   73.986137
H   10.403272   76.352371   75.453636
H   29.012362   89.382385   98.403885
H   88.569168   33.088913   14.142844
H   12.814446   41.198990   70.910545
H   38.081371   89.737419   83.373413
H   95.683601   45.701553   58.100449
H   35.133759   11.467781   44.587891
H   57.766953   20.290178   87.959724
H   31.432653    6.893173    0.060984
H   25.328453   39.043552   37.342083
H   42.255085   65.435089   27.255201
H    0.771052   75.116417   99.398361
H   22.667564   11.605958   58.480381
H   71.544304    9.114914   29.118767
H    0.210787    1.486329   13.376375
H   72.155327   49.971920   54.292847
H   24.921354   58.120026   77.320213
H   74.383331   58.054173   33.019310
H   44.748348   52.402538   23.877333
