100
TIME:    6.504, STEP:  6504
H   77.483475   25.572405   93.191422
H   20.850792   57.307537   88.203529
H   91.564636   41.827370   46.996525
H   82.568283   64.685577   83.656738
H   36.915314   94.081711   89.355743
H   27.159863   94.161827   22.858829
H   12.096131    0.517845   99.074348
H    8.684723   51.279873   11.017571
H   93.747139   60.960312   90.683052
H   97.112038    9.771971   62.375645
H   95.268799   27.944906   13.251652
H    7.599831   49.702457   29.966747
H   29.033066   68.280754   78.751396
H   33.041145   85.028725   52.198193
H   59.603584   89.063499   38.124996
H   40.012695   42.865456   93.151855
H    1.094020   12.160621   65.473122
H   40.152241   78.354492   74.062050
H   46.566952   51.205513    6.019162
H   17.289223   67.689980   59.155174
H   78.320145    8.722996   80.712425
H   85.925156   52.718140   65.402603
H   98.904427   41.725609   46.263931
H   14.742229   14.634981   24.029520
H   96.964668   70.361008   84.573402
H   16.897421   34.385056   78.809822
H    1.231298   72.114944   29.016752
H   83.752975   60.024437   81.761093
H   52.594231   39.185467   49.724152
H   50.384998   29.866020    0.438415
H   72.030281    5.282319   94.803230
H   76.423828   72.811066   97.156227
H   28.489758   92.619164   83.728638
H   52.911537   77.669968   97.748932
H   19.089722   67.225990   20.759241
H   38.018917   94.849586   98.977791
H    3.617629   66.344849   20.954931
H   95.171089   39.927471   81.410530
H   70.537964   39.704460   14.026472
H   50.588886    3.300125   49.756168
H   90.749710   79.350349   95.577126
H   52.092316   67.108582   12.001111
H   67.260712    2.503421   71.264000
H   64.039749   21.812155   16.662634
H   92.482018   75.276230   12.674987
H   94.170555   86.970688    9.584433
H   92.547165   78.547379   87.896812
H   56.586765   62.359070   71.008591
H   55.146118   93.789223   85.027115
H   62.292370   29.727903   28.771868
H   43.054996   41.724579   21.988853
H   21.218067   60.217628   47.089149
H   43.785450   59.721130   25.126104
H   26.074715    1.081250   18.819759
H   22.936966   28.584126   55.669376
H    1.696483    5.692146   71.215286
H    8.578101    1.876078   74.571938
H   41.754059   62.665016   46.027939
H    3.234349   13.579986   12.171070
H   29.821991   27.707119   78.621361
H   69.977898   76.104630    7.293659
H   68.078255   67.403763    1.067168
H   15.616587   63.461830   87.471649
H   89.657700   77.193146   50.558079
H   90.477509   41.380634    1.257793
H    1.796530   18.939812   30.751081
H   65.740402   73.220795   81.074966
H   31.090126   89.507545   77.131409
H   81.060951   82.450378   52.314129
H   62.151779   75.275322   88.037567
H   15.500786   52.869156   84.129402
H   37.682629   35.670013   32.813927
H   82.917953   96.593109   94.983948
H   87.030937   37.781200   16.707975
H   75.754021   37.913937   94.444962
H   79.417274   24.417759   58.291664
H   57.484951   62.864056    6.090994
H   37.550076   25.439264   73.632240
H   73.402367   34.414425   90.246056
H   80.562973   54.716164   60.595757
H   38.145866   96.568527   68.717926
H   29.352243   86.650223   42.879681
H   29.267563   15.887866   49.352051
H   97.614830   68.720482   69.376396
H   35.638908   42.056686   17.262390
H    1.598292   47.957787   93.440582
H    1.542179   30.459007   33.679268
H   60.631218   84.617432   28.141464
H   90.658798   32.039330   74.996468
H   91.297562   41.684505   56.717529
H   90.193108   24.629532   70.814377
H   59.529034   84.642532   57.450401
H    2.372518   22.671246   21.968882
H   75.853035    7.763161   65.353729
H   44.142494   67.141830   65.541168
H   31.125351   38.895172   31.509048
H   46.345177   40.930786   63.138367
H   25.723101    8.277482   48.312874
H   98.877678   64.888054    0.258077
H   43.199017   11.732143   71.190208
