100
TIME:    7.221, STEP:  7221
H   28.995119   59.820503   92.534988
H    1.050939   96.158379   33.412083
H    3.893123   93.412071   38.577770
H   82.688629   35.146088   44.355541
H   30.492567   51.552334   69.914383
H   16.038792   93.385048   93.865829
H   74.516510   48.934925   55.144756
H   52.329933   13.310735   45.186020
H   76.121910   92.023590   45.551037
H   77.528450   20.067858   90.449104
H   28.575195   56.795139   44.186058
H   80.236023   85.642166   78.930595
H   83.290459   24.907574    7.503781
H   97.540932   82.818733    6.760563
H   68.312263   25.017509    3.645761
H   11.182365   80.153870   33.635254
H   43.437294   59.582554   30.744471
H   55.485424   43.465073   49.208374
H   57.731785   81.283417   43.791454
H   97.973099   52.464878    7.971811
H   35.772339   37.344177   61.249958
H   54.664642   53.669968    4.343425
H   89.331444   35.894295   25.749563
H   48.123276   23.212374   70.780304
H   71.320015   13.498100   89.868629
H   13.559673   13.226650   11.354182
H   39.404003   42.308899   43.244938
H   23.255013   93.491585    5.459272
H   68.184517    4.237879   15.831629
H   77.878601   12.120146   57.437248
H    0.245997   69.575882   38.076469
H   21.695461   53.000767   30.779900
H   78.995003   40.159218   48.321663
H   83.205925   11.961099   67.542068
H    1.244802   12.938972   64.384644
H    0.347229   51.008682   96.724037
H   72.386215   40.087524   77.451935
H   65.533134   26.804279   32.007233
H   40.272106   24.082739   44.543518
H   83.055687   36.177372    6.167336
H   41.746979    3.954842   12.468393
H   91.667305   69.920303   48.604221
H   73.431183    6.804544   23.054562
H   18.259007   33.846764   86.766594
H   30.287872   46.987255   74.030464
H   84.914848    0.646273   12.497355
H   98.148727   17.540619   94.778419
H   56.628353   69.743942   15.372086
H   76.105904   34.406635   56.427063
H   77.345947   40.641674   78.640358
H   43.005764   72.502502   29.546040
H   56.069332   93.683319    0.022894
H   58.659130   63.878540   83.484688
H    9.472427   89.385406   50.458694
H   65.848160   91.418648   61.768734
H    2.589506    4.937932   46.806915
H   54.030849   81.187401   42.764702
H   88.365402   94.952721   27.559629
H   59.780899   43.879734   57.128929
H   82.507088   82.818283   58.228172
H   15.206600   42.761314   51.389221
H   42.630531   60.730026   68.628281
H   64.295616   14.534747   38.304810
H   38.892834   81.098923   31.089367
H   18.935894   84.115265   68.029243
H   57.749969   83.296104   73.145721
H    8.213850   98.012085   15.691993
H   81.561806   30.514666   11.408156
H   16.794868   30.931320    7.343255
H   76.680138   11.336524   86.527771
H   92.732368    4.084901   75.530128
H   78.634514   11.835149   85.342796
H   36.168976   61.130917   76.603821
H   71.243721   92.402527   74.106415
H   10.314538   38.947720   48.802723
H   96.364189   70.372337   10.048224
H   22.603813    0.803852   18.806753
H   71.236038   78.557426   13.227569
H    7.787479   32.308369   98.243599
H   45.400040   15.657262   98.825691
H   52.177849    3.986916   11.572047
H   83.154488   91.299957   82.895164
H   74.620338   27.878698   17.634315
H   46.942341   30.076084    3.891067
H    0.726896   97.205101   47.757362
H   85.099472   74.295029   43.231445
H   49.429050   78.326942   67.868492
H   72.162560   27.241899   20.707359
H    5.538711   92.118935   69.132332
H   27.905066   12.183308   82.349686
H   19.535816   63.343193   85.956100
H   12.579775   38.567200   71.112526
H   48.333454   44.185841   77.415596
H   45.147949   51.262535   13.699752
H   31.746792    2.915643   82.017639
H   90.346558   10.582831   94.474693
H   89.433586   82.078201   21.902756
H   24.339121   43.754047   33.920578
H   64.721275   67.984230   40.203190
H   87.735451   93.332169    2.117830
