100
TIME:    5.910, STEP:  5910
H   17.653315   80.045097   93.735245
H   37.254585   25.117735   50.750629
H   81.349823   99.093597   53.971058
H   82.468582   89.157623   16.215279
H   42.235718   46.469986    5.461535
H   36.373135   94.805351   64.034386
H   43.226788   60.410427   52.622776
H   55.371948   99.892807   65.558281
H    8.348854   18.071121   28.073084
H   13.337946    1.242312   39.118137
H   50.521225    4.044348   70.467644
H   30.272728   19.928135   72.248894
H   66.937546    4.200554   37.774345
H   62.452919   86.859596    6.992886
H   52.385719   42.122208   66.685760
H   63.895599   94.818703   42.459686
H   48.860115   72.870461   11.398962
H   27.449438    7.258110   94.654823
H   37.317425   26.284815   74.722931
H   33.291222   80.306679   18.712854
H   13.568932   67.858948   96.836784
H   28.977798   51.929596   15.987152
H    6.835787   46.556572   63.258408
H   69.934563    7.529025   68.146347
H   18.208900   17.466850   80.186562
H   19.605207   51.946014   34.667938
H   52.453568   96.804520   17.229383
H   33.873371   32.298515   62.128639
H   39.678429   85.293610   77.803558
H   27.608307   44.567375   53.216446
H   48.651970   52.016148   41.798546
H   38.918156   89.225464   52.145744
H   86.649651   36.078133   30.216429
H   27.813717   32.106407   22.771948
H   33.865585   12.168697   84.606018
H   86.384033   48.325508    0.845335
H   46.644638   88.097778   74.150246
H   19.722183   50.799404   39.493473
H   95.608215   52.647453   71.589455
H    6.537859   58.909672    3.020498
H   31.344475   58.967163   81.582741
H    2.151289   64.779205   81.674919
H   62.147129   98.940460   28.359917
H    1.971224   11.842062   58.583633
H   44.006802   98.715012   61.845074
H    1.837817   75.641037    7.171217
H   87.906540   46.244278   82.195732
H   56.555042   56.241058   34.255207
H   37.784561   42.983200    8.720889
H   49.828320   20.685331   70.309982
H   43.095783   99.070740   15.728040
H   92.348000   15.335278   86.081276
H   31.463322   56.276917   59.626705
H   39.828911   10.773767   92.609093
H   70.231895   76.529587   50.616352
H    0.956653    6.316977   91.436447
H   70.919121   19.016472   18.077766
H   85.985016   18.761068   61.327499
H   56.384956   88.480705   57.770744
H   69.018631   82.050491   95.516136
H   32.508472    3.730389   53.604954
H   89.160469   72.932632   27.945122
H   75.291130    3.994909   28.204010
H   48.869278   73.957397   66.686218
H   66.902771   88.822311   45.941853
H   38.285210   48.469414   95.628654
H   13.398010   52.684902   52.397354
H   72.121590   55.536716   48.734776
H   51.456921   25.131416   89.567444
H   50.119690   45.398476   89.288361
H   34.364342   93.284286   91.253487
H   86.660538   55.383606   89.324417
H   21.648411   25.973679   10.213966
H    0.109852   75.374352   52.001122
H   47.115337   37.066479   49.416397
H   65.377571   86.348564   98.262024
H    3.544231   14.306166   95.569344
H    9.642879   64.281425   40.827431
H   44.918125   36.159191   83.620476
H    9.693266   87.073647   11.769332
H   26.521646   90.423325   33.215336
H   84.773849   82.798004   92.569145
H   91.695030    5.955045   92.781723
H   56.747314   17.890507   23.630116
H   64.561241   79.211555   74.844208
H   15.270649   26.137489   52.191589
H   61.870262   73.647636    5.355086
H   51.078056   32.149120   34.300262
H   78.332138   65.112846   79.854622
H   43.815487   66.124435   35.485764
H   65.884209   92.554871   58.270184
H   15.579050   39.967453   46.134346
H   64.295868    4.847440   76.033951
H   18.446491   71.726021   25.301149
H   54.411690   20.347530   51.891209
H   82.063339   62.352081   62.189743
H   93.494652    6.843501   97.299530
H   26.869661   78.884598   60.236198
H   27.174133   62.325985   50.013351
H    6.304842   26.975056   28.411472
