100
TIME:    9.074, STEP:  9074
H    3.684839   89.892708   90.838516
H   49.874161   96.569839   50.250401
H   35.744617   26.723446   16.825447
H   82.999649   58.801872   42.786057
H   13.888346    0.078369   19.672268
H   87.305908   91.377556   77.375000
H   77.400902   74.058647    0.051781
H    6.687790   73.617599   75.049721
H   30.571632   13.864038   28.910837
H   26.916319   46.674198   63.004524
H   56.213654   31.353027   65.694908
H    9.510513   78.523415   47.031502
H   65.130783   12.751492   23.358608
H    5.791688   77.107277   47.776180
H   90.818794   59.498421   14.532784
H   36.678040   18.083885   79.819397
H   94.429817   82.145134   99.430367
H   95.106949   53.298058   84.976639
H   86.597015   59.020672   41.414616
H   48.044788   13.117468   34.132683
H   25.812691   52.872589   10.960629
H   32.313564   56.129852   46.543350
H   64.591225   20.829210   72.732437
H   75.953003   45.379608   33.159718
H    5.046794   66.547867    3.551835
H    4.821453   58.601974   36.978092
H   79.618248   65.283646   80.009811
H   66.902954   79.983353   66.712975
H    8.476205   72.356316   28.238548
H   48.930077   66.257919    4.745936
H   73.176033   35.739025   91.473099
H   38.695118    1.808953   59.238441
H    9.516655    4.585774   15.254537
H   61.500290   42.144684   89.478828
H   55.128975   72.640877   77.122833
H   61.424732   96.146576   90.899483
H   50.113258   72.225349   23.460897
H   88.946983   92.893501   62.766830
H   62.057682   83.710899   64.974380
H    8.524431   62.706779   51.958687
H   15.107954   67.531036   56.123989
H   35.506683   77.186859   43.204334
H   89.378021   17.920582   56.896313
H   99.940102   64.956215   67.940865
H   69.552704   73.888451   32.598598
H   60.996368   35.983471   20.025450
H   12.633798   18.313395   12.570560
H   56.741451   88.829254   30.024845
H   30.272263   80.941383   82.508972
H   16.247252   68.847954   49.079235
H   42.878529   93.606987   49.082855
H   46.125774   21.738800   78.384346
H   97.086189   74.622864   75.869705
H   66.554810   59.157661   32.225899
H   18.309532   53.807465   77.519653
H    4.897415    2.988756   83.726410
H   71.503098   27.720253   19.000494
H   50.386902   19.959909   79.829247
H    5.925688   22.177736   14.874113
H   60.227100   25.245815    5.524437
H   32.095997   56.586788    6.916479
H   76.863914   43.482559   84.785545
H   90.094513   88.089256   11.239044
H   66.136475   91.192932   80.781082
H   92.485367   36.118519   40.591099
H   43.918648   91.178276   82.710060
H   59.544571   62.071346    5.154257
H   53.562546   36.489754   99.992279
H    9.147900   97.786575   91.126892
H   14.313216    4.409054   82.597809
H   33.885822   78.004616   53.306343
H   26.045660   50.308006   21.166706
H   15.350185   69.471977   29.092083
H   30.455196   75.125648   64.007301
H   99.575531   41.676212   89.298508
H   40.173363   89.131218   85.364090
H   90.895340   40.422970   51.673065
H   58.285984   57.400230   15.572265
H   96.645729   26.865520   18.922525
H   54.527672   14.715319   39.187950
H   88.454079   23.157053   22.324028
H   22.202045    3.320047   27.873446
H   91.824364   58.867588   94.104454
H   74.425011   88.640846   34.647526
H   10.502853   81.286850   68.131134
H   42.454327   42.357315   71.909271
H   73.186790   43.598442   56.226540
H    1.963774   78.964638    1.494726
H   43.996830   88.946831   53.977180
H   64.076401   35.947693   48.589317
H   95.368126   63.398266   25.088402
H   49.683010   77.931091    6.425078
H   67.114410   99.778618   20.710932
H   24.232473   63.681995   38.643414
H   99.705154   36.936214   24.596331
H   43.396805   37.408997   98.764801
H   42.350609   88.417137   15.334023
H   20.762392   35.442120   96.718102
H   76.448662   75.985924   84.994804
H    2.833436   45.779819   23.612568
