100
TIME:    6.053, STEP:  6053
H    7.982979   66.931236   93.604324
H   33.305153   32.867130   59.767773
H   83.808945    9.381286   52.292004
H   82.492584   83.266205    8.376698
H   40.954880   57.932068    1.584420
H   34.155125   94.650429   78.195610
H   35.732685   70.066216   63.805561
H   44.132431   12.263913   52.428181
H    4.833641    4.322064   19.071760
H    9.431608    3.295730   44.717167
H   37.219711    9.798120   56.693214
H   24.814438   27.096027   62.069832
H   57.812393   95.552986   23.565117
H   55.372307   86.418831   17.875645
H   54.124779   29.348854   59.811771
H   58.146011   82.311440   30.589504
H   37.360939   82.329460   24.416815
H   30.507521    0.300247   89.697304
H   39.544163   32.284241   82.257401
H   29.438889   77.269325   28.448969
H    5.083107   53.622738   92.954994
H   42.687347   52.119431    3.809418
H    4.926395   45.393562   59.167145
H   56.647717    9.239717   57.525852
H   13.094666    6.125870   81.242653
H   18.953333   47.718376   21.220882
H   40.121956   90.860733   20.067083
H   21.807503   38.973274   66.855301
H   42.787788   98.267822   71.043701
H   33.091251   41.028160   64.584702
H   54.280457   64.838783   30.484840
H   47.947300   85.273849   38.907509
H   96.721794   25.615744   43.098999
H   33.856071   19.001274   16.747972
H   30.310837    1.358753   93.314117
H   98.814926   59.525749    0.395620
H   60.359642   82.860962   85.418129
H   13.811773   48.182087   49.584164
H   89.572784   49.531548   57.731529
H   93.068619   45.521969   14.271471
H   21.571812   63.873405   84.951759
H   90.100021   65.339981   88.975914
H   63.378872   99.797989   38.688637
H   92.839722   14.242270   72.565514
H   31.603165   93.072342   74.081772
H   99.992485   78.368546    7.752177
H   89.023727   54.020950   83.568214
H   56.562679   57.713913   43.103245
H   41.964195   31.140358    3.016317
H   52.827488   22.861883   60.308067
H   43.085964   85.265182   17.235310
H   99.297691    2.065887   76.694283
H   34.429760   57.106079   51.320896
H   36.517715    8.440383   98.919456
H   58.846184   89.060852   51.832821
H    1.134763    6.166554   86.568390
H   79.985359   14.890224   31.678215
H   75.336823    5.256111   57.644272
H   67.663010   94.522682   46.793068
H   59.581963   93.041260   91.448875
H   41.528889   97.080093   42.455990
H   84.085121   71.601608   21.474380
H   84.998878   94.236855   18.398071
H   58.689400   74.736374   62.804089
H   72.578171   77.401688   59.258640
H   29.500607   41.360435    4.084056
H    1.924533   57.628239   59.301224
H   62.243645   63.714878   55.571003
H   58.584446   14.856346   80.599396
H   53.016304   52.591461   88.987244
H   29.823322   83.554718   89.538429
H   74.868973   50.637741   99.793686
H   12.324150   18.900703    6.547104
H   96.961250   66.323387   43.504387
H   54.009388   37.270496   60.256607
H   68.757500   95.512993   88.639374
H   16.527763    1.911810   98.098289
H   16.361279   54.930466   48.725204
H   51.775082   35.739155   85.215523
H    2.680659   79.283882   99.449913
H   29.320070   91.902725   41.762257
H   95.507141   83.725357   80.607384
H    0.739524    8.346368    6.400026
H   66.585182   30.127747   10.569600
H   57.598457   70.267509   60.981918
H   11.979092   31.390125   62.121902
H   71.420906   63.250374   12.173910
H   53.377892   20.706125   32.817589
H   81.299667   57.150703   78.685066
H   31.171885   60.241047   40.597115
H   71.736351    0.276971   61.290081
H   26.159601   50.722565   48.858582
H   73.462479    9.138356   87.092361
H   32.266766   80.401680   34.943436
H   51.939476    7.538064   55.177311
H   93.874542   56.705048   54.803650
H   82.143852   15.049756   89.075546
H   26.593637   85.960846   57.365768
H   20.361908   62.942402   38.035225
H   15.186974   23.305466   14.635400
