100
TIME:    5.275, STEP:  5275
H   60.595619   38.276894   94.316605
H   54.792274   90.707809   10.710757
H   70.429947   53.408401   61.426998
H   82.362000   15.320225   51.023102
H   47.923355   95.572021   22.677795
H   46.222340   95.493294    1.146691
H   76.506615   17.530293    2.964896
H    5.281700   44.955982   23.860638
H   23.958366   79.123596   68.045692
H   30.687479   92.124550   14.251974
H    9.587372   78.493713   31.635120
H   54.510590   88.099281   17.448771
H    7.458298   42.601128    0.871272
H   93.894798   88.816841   58.670982
H   44.663322   98.843552   97.207153
H   89.426987   50.358292   95.169647
H   99.922890   30.871029   53.592407
H   13.870030   38.154484   16.667166
H   27.428341   99.644241   41.268963
H   50.397736   93.794228   75.479164
H   51.250740   31.074471   14.072109
H   68.099731   51.086624   70.063309
H   15.315080   51.720985   81.425903
H   28.934105   99.932587   15.305406
H   40.919220   67.826782   75.496925
H   22.499895   70.717361   94.380905
H    7.209333   23.200977    4.629340
H   87.452644    2.658865   41.136703
H   25.871132   27.681032    7.820621
H    3.260817   60.283470    2.736379
H   23.659149   95.075348   92.037727
H   98.824074    6.771202   10.930840
H   41.921307   82.538475   73.010612
H    0.982209   90.300529   49.523354
H   49.649506   60.170547   45.938164
H   31.183954   98.588905    2.842360
H   85.740021   11.353302   24.114544
H   45.965847   62.421757   94.684258
H   22.412373   66.483818   33.125198
H   66.346474   18.355209   53.061092
H   74.742950   37.180702   66.622414
H   57.533531   48.603355   50.620617
H   56.677502   95.132553   82.492439
H   42.516575    1.183444   96.497971
H   99.088890   23.767761    7.506214
H   10.032125   63.529377    4.591331
H   82.945602   11.710080   76.101143
H   56.521130   49.700760   94.965065
H   19.224648   95.574951   34.051765
H   36.510334   11.020224   14.724350
H   43.142170   60.376343    9.033923
H   61.487480   74.259415   27.767914
H   18.290676   52.594971   96.504875
H   54.532471   21.135895   64.587547
H   20.791729   20.880484   45.214550
H    0.165701    6.984935   13.053360
H   30.663963   37.338997   57.683861
H   33.267715   78.728874   77.683090
H    6.305471   61.650772    6.517975
H   10.924036   33.242275   13.577034
H   92.451324   33.260441    3.116185
H   11.696756   78.843124   56.678833
H   32.179722   47.326828   71.747864
H    5.263889   70.498306   83.923538
H   41.696533   39.538616   86.806557
H   77.294456   80.037254   58.082497
H   64.345398   30.733582   21.739498
H   15.985633   19.220251   18.378103
H   19.806723   70.758476   29.393707
H   37.257103   13.458906   90.625488
H   54.527840   36.489456   98.869301
H   39.019249   76.457901   42.832802
H   63.051529   57.381645   26.496887
H   14.086796   15.564648   89.731377
H   16.500669   36.160526    1.278338
H   50.364395   45.651192   40.988773
H   45.891018   69.345161   84.339409
H   79.809418    5.800604    5.757214
H   14.469342   38.024387   76.537575
H   40.830093   21.664001   66.475281
H   14.095264   83.853958   95.263786
H   37.115623   78.677322   45.685570
H   51.531250   95.335999   32.308071
H   13.061914   63.552292   81.627075
H   95.479897   18.929977   36.400230
H   29.887005    2.812846    8.095227
H   19.460058   19.817459   75.075851
H   40.864655   82.965714   40.885895
H   65.154648    0.469195   85.048103
H   99.957214   92.246872   12.786627
H   39.897423   58.265141   44.860149
H   68.595482   92.210052   34.037216
H   23.590990   85.797035   26.928425
H   57.075783   33.201244   82.484337
H   65.389702   77.227623   37.299076
H   29.614990   87.428070   94.988129
H   43.897392   70.402153   33.819153
H   26.227781   61.151154   71.621910
H   57.424225   59.588749    3.199643
H   66.860184   43.268414   89.583038
