100
TIME:    5.331, STEP:  5331
H   56.808510   33.141396   94.265335
H   53.245644   93.742111   14.241733
H   71.392960   57.437332   60.769466
H   82.371399   13.012882   47.953339
H   47.421768    0.060669   21.159576
H   45.353748   95.432625    6.692663
H   73.571434   21.311848    7.344216
H    0.880207   49.800526   18.718731
H   22.581779   73.739441   64.520912
H   29.157297   92.928627   16.445028
H    4.378387   80.747009   26.240925
H   52.373077   90.906288   13.462778
H    3.884812   39.214775   95.306816
H   91.121971   88.644234   62.932762
H   45.344353   93.841354   94.515503
H   87.175400   45.460342   90.521210
H   95.419716   34.574825   58.690308
H   15.067494   35.429935   14.725973
H   28.300564    1.993563   44.219097
H   48.889130   92.604774   79.291908
H   47.927620   25.499336   12.552181
H   73.468506   51.160965   65.294388
H   14.567292   51.265541   79.823730
H   23.730888    0.602511   11.146272
H   38.916290   63.385925   75.910500
H   22.244616   69.062210   89.114670
H    2.380375   20.873127    5.740553
H   82.727303    5.272743   42.987961
H   27.088783   32.761662    5.173565
H    5.408040   58.897484    7.188116
H   25.863098    0.097193   87.607185
H    2.359920    5.224090    5.746659
H   45.866070   78.441185   78.055534
H    3.348411   85.168449   47.164101
H   48.257538   55.937393   49.348015
H   36.051960    2.975120    2.666228
H   91.111359    9.302307   28.527142
H   43.651455   61.396793   98.636284
H   20.048420   65.263603   27.698488
H   61.071934   13.112627   57.467281
H   70.915680   39.102028   67.941750
H   52.500572   51.116844   53.251171
H   57.159863   95.468369   86.537605
H   38.940952    2.123412    1.973455
H   94.231102   21.558472   12.298419
H    9.309504   64.597488    4.818942
H   83.383102   14.755704   76.638618
H   56.524120   50.277542   98.430031
H   20.861427   90.936768   31.817715
H   37.684834   11.872580   10.807785
H   43.137897   54.969971    9.624270
H   64.209038   69.063248   24.091461
H   19.452358   52.919678   93.252678
H   53.235779   20.222015   67.058739
H   16.332775   25.788046   45.690929
H    0.235453    6.926028   11.146988
H   34.213951   35.723152   63.009911
H   29.097942   73.440422   76.240707
H   10.721962   64.017036    2.218856
H    7.228678   37.546780   11.984261
H   95.983795   30.656265   98.749962
H    9.709421   78.321884   54.144836
H   35.981785   43.505539   67.907776
H    9.109355   70.803360   82.403397
H   43.919495   35.065777   92.021523
H   73.854271   77.253319   61.393654
H   59.852478   32.669575   24.443325
H   12.117240   22.423101   21.055227
H   22.597921   66.734673   25.881317
H   38.391441   16.275623   90.507568
H   52.749641   32.679276   98.197670
H   34.402000   74.599380   46.933083
H   59.400284   54.611809   25.060913
H   12.854191   12.020428   86.403984
H   19.200651   36.240421    5.523618
H   51.688431   49.240486   37.220890
H   50.975674   64.491646   85.329765
H   82.440399    2.138851    8.849980
H   17.154644   37.859898   77.162209
H   38.084183   18.613464   61.650818
H   15.191044   84.433304   98.610832
H   41.317596   79.043030   41.002884
H   55.073547   96.272522   37.641384
H   16.914606   68.344284   76.512085
H   92.753212   15.427005   30.971642
H   28.598003    4.869823   11.984128
H   23.200171   15.745804   77.746140
H   41.766129   78.482208   40.303581
H   66.316757   97.351173   84.590096
H   95.006287   89.943161   14.788382
H   42.189171   61.288761   46.042767
H   72.738914   96.421844   35.104050
H   27.180712   87.476967   31.258991
H   62.487709   36.598705   86.260338
H   64.421562   72.211754   38.585941
H   34.240356   85.216644   92.095673
H   39.452324   73.615898   30.598572
H   26.433287   61.627960   70.725548
H   54.756500   59.830143   98.509056
H   70.338821   41.831585   84.188629
