100
TIME:    7.171, STEP:  7171
H   32.376297   64.405769   92.580765
H    2.431693   93.449181   30.259342
H    3.033624   89.814812   39.164852
H   82.680237   37.206024   47.096401
H   30.940603   47.544613   71.270126
H   16.814320   93.439217   88.914352
H   77.137207   45.558537   51.234692
H   56.259834    8.985154   49.777008
H   77.351006   96.830872   48.698544
H   78.894112   19.349932   88.491402
H   33.226074   54.783268   49.002113
H   82.144135   83.135910   82.489708
H   86.478783   27.933773   12.472610
H    0.016670   82.972847    2.955409
H   67.704964   29.483757    6.050212
H   13.192902   84.527039   37.785645
H   47.457985   56.275593   26.192774
H   54.416164   45.898087   50.941391
H   56.953205   79.186096   41.157406
H   99.320450   53.526508    4.567623
H   38.739410   42.321976   62.606846
H   49.871094   53.603592    8.601349
H   89.999016   36.300941   27.180265
H   52.769196   22.614229   74.493530
H   73.108345   17.463478   89.499367
H   13.795422   14.700459   16.059515
H   43.715755   44.387527   42.252735
H   27.473877   91.157753    3.806459
H   67.097328   99.701546   18.195024
H   75.961334   13.357729   53.462334
H   98.278343   65.092087   42.032310
H   18.538418   54.382069   35.408653
H   75.473274   43.817513   43.817268
H   81.093346   16.543228   69.648544
H    2.489212   16.724678   61.342468
H   96.000771   47.092514   96.881203
H   67.590378   41.918579   73.512115
H   67.599937   27.719425   28.479019
H   42.382778   25.172026   49.388947
H   87.765312   40.858387    2.233429
H   45.164185    2.239348   11.290510
H   95.881020   69.724228   46.051807
H   73.000885    6.504614   19.443188
H   21.451527   33.007530   81.877678
H   34.624878   48.959835   69.751900
H   85.560295   99.692703   12.294222
H   97.758102   14.821313   94.298531
H   56.625301   69.228958   12.278461
H   74.644112   38.547489   58.421768
H   76.296143   39.880642   82.136147
H   43.009197   77.329620   29.019039
H   53.639370   98.322754    3.305184
H   57.621914   63.588623   86.388435
H   10.630188   90.200989   48.252274
H   69.829178   87.037086   61.343395
H    2.527231    4.990527   48.509033
H   50.861217   82.630119   38.009300
H   92.088547   99.674553   28.847662
H   55.837646   41.766773   60.967278
H   85.806801   78.975357   59.650291
H   12.052513   45.086372   55.287460
H   44.405128   61.195419   70.890396
H   60.900951   17.946762   41.733459
H   35.459225   80.826553   32.447018
H   16.951298   88.108490   63.373020
H   60.821564   85.781761   70.189331
H   12.225576   96.283264   13.277862
H   85.015633   27.654978    9.017867
H   14.302792   34.524002   10.479222
H   75.666954    8.821589   86.633057
H   94.320045    7.486943   76.129799
H   82.749046   13.499024   81.678398
H   39.429016   63.603985   77.885559
H   72.344643   95.567200   77.077301
H    7.906128   38.874096   45.011677
H   95.182396   67.167992   13.412501
H   18.062607    5.131582   17.920027
H   68.886948   81.826622   10.466205
H    5.389894   32.455235   97.685890
H   47.852127   18.381134    3.133194
H   51.198997    3.469643    8.583518
H   79.402351   90.975708   87.078362
H   71.457954   27.042517   12.872492
H   43.502628   25.797329    8.457693
H    3.161436    0.333114   52.604317
H   86.249985   72.458633   39.759308
H   46.089664   81.962349   65.484306
H   71.358421   31.242945   21.225777
H    4.500970   94.902901   69.541267
H   32.325741   14.240574   80.562119
H   17.489613   60.643532   84.900192
H    8.880281   34.806671   70.159615
H   45.128345   42.685520   73.549019
H   40.315872   48.229088   10.328418
H   32.611259    7.394431   80.868652
H   86.216766   12.557223   97.057243
H   93.402397   79.208786   24.778465
H   24.435633   41.280216   34.924225
H   67.103172   67.768318   44.391346
H   84.629524   94.615433    6.934591
