100
TIME:    8.578, STEP:  8578
H   37.226555   35.377464   91.292618
H   63.572891   69.694595   18.974945
H   27.218859   91.040024   22.647408
H   82.916397   79.236443   69.974556
H   18.332865   60.321781   33.119507
H   94.995361   91.914909   28.253738
H    3.397908   40.566010   61.263935
H   45.672409   30.707933   20.589920
H   42.764259   61.552948   60.133915
H   40.464394   39.552372   43.584114
H    2.350366   11.396937   13.473486
H   28.442764   53.661358   82.337898
H   96.758957   42.771492   72.648544
H   30.349516   78.636086   10.028988
H   84.794380    3.803575   38.384468
H   56.620667   61.465721   20.991955
H   34.315376   49.337986   54.277534
H   84.497818   77.433556    2.171635
H   78.869720   38.211468   15.284854
H   61.406727   23.650732    0.362766
H   55.246040    2.249585   24.422956
H   84.761559   55.471405   88.782364
H   71.213539   24.861254   86.923111
H   22.037672   39.446014   69.998093
H   22.785721    5.881203   99.890419
H    7.161022   73.224045   83.654358
H   22.388052   85.899857   70.170944
H    8.755384   56.831745   50.316750
H   97.690819   27.355051   51.685020
H   29.910995   78.533798   65.314972
H   53.655231   91.261726   30.715019
H    7.377499   15.512199    5.155631
H   74.580338   40.874672   70.570938
H   40.543503   87.600250   10.374273
H   67.472969   10.195000   46.945644
H   18.308390   57.297531   92.458565
H    2.541220   90.389412   84.378258
H    9.448393    1.968630   27.766953
H   82.992119   94.518517   13.040535
H   55.241081    9.139327   12.933366
H   49.005692   50.512794   44.438442
H   77.306732   75.241791   17.883331
H   85.109467   14.944660   21.071484
H   31.609806   56.627670   19.446293
H   12.578186   93.452660   90.153496
H   67.397423   26.524117   18.010374
H    8.755960   91.338448    7.807243
H   56.711178   83.720612   99.335609
H   15.775070   22.020477    2.292970
H    5.836050   61.296085   83.759087
H   42.912586   41.493263   43.853119
H   22.019766   67.765045   10.943839
H   86.800789   71.746887    4.675184
H   78.043579   67.250504   10.340075
H   57.801888   10.339414   73.304077
H    4.279648    3.510500    0.611425
H   40.059448   42.032021   71.826607
H   87.320496   66.800972   92.604637
H   66.805077    1.218904   52.953461
H   92.959816   87.121567   19.631859
H    0.806956   79.653931   45.587109
H   94.467918   48.099258    7.226612
H   56.422031   21.935747   45.251251
H   32.075314   88.491028   94.245193
H   72.800064   75.733978   94.400345
H   74.388863   15.835387   53.382664
H   99.339005   44.925228   81.207626
H   87.824509    8.121953   76.280609
H   84.428467   33.425957   22.235092
H    4.239553   79.494522   83.649811
H   49.639362   11.752833   59.255074
H   66.888855   66.776756   84.809738
H   47.689804   94.008598   41.810711
H   41.372555    6.518722   93.478493
H   75.682220   40.945866   51.691334
H   28.446192   57.343315   18.739130
H   45.848465   83.352783   42.874847
H   34.986790   89.830650   88.176819
H   72.858376   28.322430   13.386717
H   78.852379   41.735527   81.918907
H   78.743874   18.025705   92.678284
H   84.982285    0.100183   69.367653
H   60.453087   50.572666   46.868954
H   40.301903   46.197487   79.949272
H   34.653488   12.315969   16.212589
H   53.871197   24.137306   37.465668
H   40.060078   79.661674   32.575417
H   93.986870   18.653721    6.637387
H   33.703861   16.563154   58.033821
H    7.927970   56.355774   30.860315
H   75.069786   36.617626   14.613791
H   12.984034   40.626648   96.974541
H   35.319736   84.899223   82.354492
H   76.295517   33.590199    5.200045
H    8.281517   81.364792   13.200041
H    2.429210   56.995911   24.384285
H   81.721214   59.952538   43.860252
H   21.719790   10.900090    6.676790
H    0.077078   73.844078   26.539928
H   72.022903   58.506016   71.394821
