200
TIME:    0.800, STEP:   800
H   26.678694   60.616474   24.915230
H   32.955383   41.053520   12.631328
H    6.400574   93.649261   72.931206
H   36.719040   83.519173   29.855835
H    9.264480   97.922363   45.607048
H   71.400818   37.615715   48.974220
H   11.472625   54.906792   60.490597
H   15.437913   13.067382    5.194959
H   10.170214   79.110840   34.058224
H   91.148148   67.054283   73.983833
H   31.712519    6.556748   10.658195
H   33.093475   56.970047   39.425224
H   24.918682    5.593649   38.340019
H   77.935432   55.569607   69.250664
H   92.585220   76.255501   41.600723
H   12.977551    2.892947   42.242622
H   10.550569   33.945988   88.242714
H   23.264847   10.088410   33.550579
H   83.657623    9.428194   50.727547
H   91.837868   72.014244   15.762341
H   64.805656    4.712829    0.184655
H   77.561989   70.219398   48.994492
H   78.235802   58.469803   35.699318
H   20.469650   93.164772   89.830101
H   27.586899   35.226326   25.428051
H   18.197531   87.189041   88.461067
H    9.740542   70.033333   71.597733
H    7.362488   93.230629    2.204788
H   34.654713   39.508247   35.059250
H   67.743637   35.766293   79.254562
H   12.630367   74.845253   16.879475
H   21.742641   76.631332    7.390749
H   13.592415   21.035257   80.019363
H   77.892616   64.188881   48.078506
H   21.114225   66.661362   29.958933
H   14.768679   37.153702   85.897987
H    2.337373   62.342209   90.159035
H    5.215257   59.241093   89.989166
H   32.344543   26.348122   56.879448
H   84.712265   37.385632   41.821381
H   80.670937   79.063705   20.111946
H   41.212845   31.363970   23.225655
H   66.618851   74.917549   71.122353
H   36.033707   90.432381   38.776203
H   47.911041   93.380722   64.572655
H   33.179237   99.264595   48.778271
H   90.527130   98.776245    8.456756
H   76.482399   65.542061   27.515823
H    8.737571    7.501156   61.570080
H   42.077419   20.328665   82.021301
H   64.886703   63.408104    5.675655
H   99.731377   45.336651   75.581520
H   67.281212   78.407707   15.246121
H   14.071966   94.001328   89.996010
H   53.495285   63.930710   72.662392
H   98.127129   58.553436   96.985626
H    3.832330   18.864601   43.647511
H   73.526840   71.597580   95.195488
H   16.364603   85.295334   20.670536
H   30.151325   92.844643   56.642059
H   48.605858    4.450655   25.874714
H    0.001457   17.751482   53.359352
H   86.875168   36.806824   65.992096
H   37.694756   65.951286   16.170769
H   80.350449   84.427460   40.829334
H   16.772100   38.317253   42.929214
H   65.257179   11.349490   97.404945
H   94.205437   92.723122   98.358589
H   36.441528   13.420844   54.891792
H   42.013393   51.390423   50.952686
H   58.219498   86.277802   88.260590
H   16.401821    9.102387   40.844845
H   95.267227   35.344494   80.743927
H   26.109602   96.655571   76.875893
H   85.963882    9.936675   41.281540
H   67.468422   99.306190   59.218109
H   93.060638   50.797668   64.224434
H    5.813745   16.167234   28.818367
H   15.789873   54.640404   22.529211
H   59.836926   87.543777   67.704010
H   67.135796   20.637480   92.819672
H   51.260555   58.518894   70.545219
H    8.814883   19.809031   73.894829
H    6.412524   80.171364   12.103036
H   18.966507    5.245635   41.912140
H   40.443771   66.180817   16.125412
H   60.953789    3.951025    3.055186
H   70.674507   97.701935   32.564140
H   82.826492   73.420212   79.187500
H   20.639259   11.148573   48.704617
H   17.768433   39.727085   78.263641
H   80.154671   93.448792   10.586918
H   73.862961   10.546333   79.780731
H   34.916477   74.314629   84.481255
H   39.314262   49.351128   91.263145
H   46.081154   40.229744    2.731763
H   86.902031   94.909325   22.446983
H   92.386742   37.288792   54.072128
H   24.328697   64.168289   54.865807
H   76.941368    7.026684   27.387125
H   34.851467   95.909790   95.309425
H   11.395410   85.128860   62.775612
H   34.787674   16.704065   38.328060
H   48.784264   68.973419   12.401141
H   24.596399   20.113419   43.243359
H    9.593454   99.355453   17.672228
H   91.299721   36.901463   53.476589
H   61.451206   55.775536   97.087532
H   87.028130   33.020866   26.211445
H   22.355928   20.252466    8.278048
H   54.562401   91.200447    1.189852
H    8.479340   77.427429   96.889946
H   47.367783   86.773071   81.754585
H   61.327202    7.324455   60.513580
H   45.162514    5.287517    7.137256
H   91.184792   89.415962    4.197565
H    9.550498   16.328093   90.708420
H   37.929928   54.560261   22.784660
H   40.129173   78.738388   55.863285
H   85.561073   57.851620   70.233597
H   46.399300   25.480747   69.169609
H   94.126801   14.214039   64.660553
H   45.737373   98.204056   40.642101
H   95.826874   47.167412   93.341789
H   60.159782   95.087151   74.292015
H   68.238701   77.673767   14.718798
H   81.466957   51.804672   49.427567
H   63.179527   91.962059   39.732189
H   99.359200   32.212978   72.128426
H   94.888138   21.495079   76.042015
H   71.214546   65.190582   24.812099
H   60.205254   91.605576   22.533161
H   90.609138    9.839830    1.541313
H   73.461456   27.360744   56.599163
H   32.090458   91.244415   30.683853
H   47.442917    0.908142   75.431480
H   69.819839   87.991524   83.216469
H   95.994957   46.735905   74.350105
H   60.950684   52.165054   71.417641
H   43.751289   82.232689   79.897186
H   78.341660   46.600464   32.999512
H   31.458290   58.025902   59.301395
H   37.003487   67.067665   80.495697
H   32.052681    6.256599   87.404213
H   66.624573   51.194687   67.380310
H   66.458885   71.623398    3.025745
H   57.975883   94.325401   43.272190
H   27.361305   52.573357   65.612083
H   80.155975   41.411308   92.377441
H   27.313194   94.788689   69.040512
H   56.482269   70.820450   47.116596
H   57.360672   91.614067   30.603195
H    2.190799   10.899258   83.806656
H   24.713120   13.996836   62.113728
H   35.818653   68.668839   70.883904
H   80.126244   44.917454   71.290558
H   65.173080   77.678238   87.386642
H   54.007797   27.674911   22.843792
H   86.751488   99.624191   81.836678
H   57.401295   34.094696   99.731552
H   59.456741   61.658531   68.526360
H   17.310785   20.154232   30.692596
H   89.324577   10.154011   36.999203
H   31.830435   36.630772   47.240326
H   53.592247   41.090134   15.326941
H   21.561981   46.620998   59.240604
H   65.256889   88.509346   58.158283
H   24.121410   56.411385   71.169449
H    1.682560   26.349073   35.534607
H   52.028679    6.233716   84.097198
H   68.666748   12.293517   35.929077
H   26.816950   44.646782   59.177780
H   48.492950   53.390797   74.667191
H   64.330185   61.143944   87.231827
H   45.410034   90.823898   72.900246
H   18.195183   50.688057   23.830292
H   29.664875   70.415527   10.332947
H    6.693205    9.734917   72.040848
H   61.279873    8.361062   62.585621
H   59.662086   60.462181   94.284782
H   71.193817    5.257487   28.699245
H   30.522985   30.789639   90.059891
H   39.850170   89.576080   17.161697
H   63.676376   26.256557   97.792091
H   92.764786   64.045441   76.089706
H   10.983742   40.949112   86.756935
H   50.851501   94.932564   11.673422
H   63.517365   90.945259   45.121834
H   90.400551   63.670658   72.943558
H   59.796982   55.227047   72.778214
H   74.571442   12.496819   75.302437
H   43.062157    0.147711   17.491514
H   16.539314   30.846626   70.635384
H   25.320360   85.880371   44.598988
H   65.677078   29.242332   19.984467
H   76.695328   11.757576   21.894100
H   13.183661    0.829266   22.368147
H   12.634508   86.276421   31.173561
H    4.445582   13.178820   52.971901
H    2.166973   16.019978   89.968643
