100
TIME:    7.012, STEP:  7012
H   43.128983   78.986916   92.726334
H    6.822537   84.833931   20.233894
H    0.300422   78.375526   41.031773
H   82.653549   43.756622   55.812336
H   32.365204   34.800060   75.581390
H   19.280499   93.611473   73.168655
H   85.471024   34.821621   38.800686
H   68.756920   95.229553   64.376320
H   81.259529   12.118255   58.707615
H   83.236916   17.066927   82.265907
H   48.015869   48.385517   64.317192
H   88.211929   75.166016   93.807686
H   96.617653   37.557087   28.273502
H    7.889187   83.462929   90.855934
H   65.773750   43.686424   13.696255
H   19.586407   98.433716   50.983887
H   60.243782   45.759457   11.718377
H   51.015919   53.635071   56.452385
H   54.477322   72.516617   32.781132
H    3.604012   56.902493   93.742210
H   48.174698   58.151375   66.922569
H   34.627609   53.392517   22.141678
H   92.121895   37.594078   31.729898
H   67.542931   20.712130   86.301590
H   78.795235   30.073380   88.325111
H   14.545101   19.387169   31.022173
H   57.427128   50.997566   39.097530
H   40.889465   83.736168   98.550766
H   63.640068   85.275673   25.710623
H   69.864426   17.293144   40.822105
H   92.021309   50.834740   54.611885
H    8.499247   58.774609   50.128090
H   64.274178   55.450890   29.493292
H   74.375343   31.114670   76.347137
H    6.446410   28.763222   51.668205
H   82.179008   34.639099   97.380989
H   52.340546   47.741333   60.983494
H   74.172371   30.629589   17.259300
H   49.094715   28.635958   64.797409
H    2.741790   55.744015   89.724106
H   56.030899   96.783394    7.544841
H    9.280823   69.100708   37.935131
H   71.632538    5.550835    7.958805
H   31.603741   30.338766   66.330925
H   48.416313   55.232639   56.146065
H   87.612816   96.660019   11.648260
H   96.515915    6.173949   92.772484
H   56.615597   67.591309    2.440725
H   69.995613   51.715405   64.764786
H   72.957764   37.460560   93.252754
H   43.020115   92.679855   27.343178
H   45.911205   13.077095   13.742414
H   54.323566   62.666687   95.622353
H   14.311867   92.794540   41.235855
H   82.488815   73.103722   59.990818
H    2.329197    5.157780   53.921768
H   40.781788   87.217964   22.887123
H    3.928041   14.690500   32.943466
H   43.298103   35.047558   73.173225
H   96.299889   66.754852   64.172630
H    2.022516   52.480057   67.684219
H   50.048347   62.675369   78.083923
H   50.105808   28.797100   52.636566
H   24.540764   79.960419   36.764347
H   10.640281    0.806997   48.566242
H   70.589233   93.686150   60.788010
H   24.982866   90.785614    5.600972
H   95.998802   18.561171    1.416747
H    6.378053   45.948730   20.451733
H   72.445030    0.824228   86.967865
H   99.368858   18.305374   78.036751
H   95.833260   18.789989   70.025612
H   49.795944   71.467194   81.961487
H   75.845573    5.630445   86.524719
H    0.247380   38.639973   32.956150
H   91.424294   56.977337   24.111132
H    3.621785   18.893871   15.100237
H   61.416836   92.222664    1.684978
H   97.765221   32.922268   95.912376
H   55.649765   27.043087   16.830986
H   48.087120    1.824440   99.080414
H   67.470558   89.944595    0.380904
H   61.401260   24.383459   97.730118
H   32.564342   12.190973   22.979557
H   10.903273   10.279382   68.017632
H   89.908615   66.618896   28.717911
H   35.470417   93.522942   57.902596
H   68.801262   43.966839   22.874344
H    1.200955    3.755753   70.841682
H   46.384052   20.782681   74.877655
H   10.982685   52.058609   81.542404
H   97.115891   22.848656   67.129356
H   34.936100   37.914501   61.253304
H   24.949589   38.582726   99.607452
H   35.360085   21.637123   77.214874
H   73.084030   18.835653    5.269943
H    6.023066   70.084045   33.923096
H   24.742540   33.413433   38.115822
H   74.677605   67.081718   57.709682
H   74.752678   98.696213   22.251904
