100
TIME:    7.547, STEP:  7547
H    6.949720   29.924656   92.236526
H   92.047470   13.823949   53.968647
H    9.496973   16.865334   34.749996
H   82.743347   21.714348   26.485519
H   27.571371   77.682671   61.074936
H   10.982966   93.031868   26.150486
H   57.430523   70.948196   80.638382
H   26.706978   41.512959   15.252793
H   68.108208   60.680115   25.029716
H   68.624336   24.748735    3.213589
H   98.251480   69.912537   12.784616
H   67.795135    1.982890   55.725182
H   62.502586    5.176413   75.106087
H   81.399117   81.813911   31.570210
H   72.271858   95.897598   87.967072
H   98.073990   51.640808    6.573739
H   17.222389   81.145920   60.421535
H   62.456997   27.601822   37.909103
H   62.808125   94.957947   60.965450
H   89.188370   45.543049   30.167429
H   16.427032    4.888961   52.403049
H   85.918579   54.102737   76.581528
H   84.978874   33.242958   16.421385
H   17.832460   27.112276   46.568275
H   59.660103   87.645020   92.276222
H   12.022594    3.617420   80.676598
H   11.292295   28.756540   49.714100
H   95.748192    8.708137   16.235598
H   75.272987   33.814533    0.422144
H   90.379181    4.051104   83.353691
H   13.076715   98.810226   12.284386
H   42.279385   43.994678    0.600498
H    1.956825   16.307955   77.690315
H   96.979942   82.085243   53.807846
H   93.131554   88.256248   84.217438
H   28.685207   76.542099   95.699318
H    3.654894   28.148645    3.139495
H   52.059784   20.837528   55.011185
H   26.510525   16.980589   12.952076
H   52.349876    5.658017   31.816408
H   19.467497   15.139813   20.148527
H   64.193886   71.198715   65.246147
H   76.236725    8.760092   46.600719
H   97.443085   39.318565   18.641350
H    2.009850   34.126034    1.926788
H   80.706535    6.863227   13.821779
H    0.696023   35.270271   97.907295
H   56.648251   73.101639   35.543118
H   85.636787    7.408261   43.421585
H   84.190674   45.603603   55.846924
H   42.983379   41.029694   32.982437
H   71.912689   63.434155   78.623169
H   65.421257   65.768799   64.552254
H    1.923828   84.067810   64.844559
H   39.891922   19.987644   64.541458
H    2.995538    4.595012   35.709106
H   74.698135   71.780876   73.769920
H   64.090500   64.166374   19.161657
H   85.488823   57.656239   32.102898
H   60.993309    7.874862   48.955956
H   35.771618   27.601574   25.972702
H   31.060158   57.695663   53.877579
H   86.426567   92.288971   15.950012
H   61.279964   82.874771   22.237484
H   31.875462   58.078869   98.387794
H   37.723175   67.089622   92.421387
H   82.058319    9.282673   31.432127
H   59.042854   49.158684   26.992844
H   33.043633    7.507034   86.897919
H   83.300407   27.710909   85.836533
H   82.380714   81.904099   71.620277
H   51.789776    1.009230    9.238811
H   14.912512   45.006512   68.246887
H   64.065712   71.768860   54.736237
H   26.017366   39.427746   73.520340
H    4.070553   91.264671   88.112038
H   52.211628   72.589180   24.588209
H   86.552109   57.241482   31.232187
H   23.419744   31.350803    1.880861
H   29.412632   97.898094   70.740425
H   58.559959    7.359536   31.056778
H    7.617933   93.414062   55.621487
H   95.239082   33.330601   48.681816
H   69.369865   57.972408   74.114799
H   84.853699   76.810204   16.155844
H   77.598129   86.268326   65.869781
H   71.201851   54.624092   83.413383
H   77.405540    1.155085   17.327278
H   12.304978   73.967476   66.466072
H   99.082062   98.770157   94.004623
H   32.877064   80.947380   92.840622
H   36.700474   63.085846   77.325508
H   69.230759   53.967930    2.625674
H   76.654091   71.040611   35.681347
H   26.109592   73.715897   89.509033
H   17.272888   97.709839   77.636467
H   63.556938    0.786764    3.153556
H   23.709864   59.883427   27.375921
H   49.191307   69.391975   12.896412
H    7.985329   84.965286   70.714523
