100
TIME:    2.809, STEP:  2809
H   27.360767   64.421715   96.574295
H   23.132866   57.045563   55.190845
H   28.038954   75.994904   90.364738
H   81.948090   16.919401   86.192444
H   70.011093   97.911255   89.541748
H   84.461311   98.164894   56.931240
H    5.751431   51.015633   10.120399
H   99.104431   31.616121   50.281536
H   84.577354   16.219635   23.270103
H   98.079353   56.716438   17.686441
H   38.968689   79.268829   69.171585
H   48.630241   64.491333   92.981789
H   64.580421   91.758835   45.936958
H   15.995736   96.417732   71.007042
H   14.668232   19.116091   15.745772
H   88.580124   66.043671   99.869484
H   98.223976   67.762955   29.102701
H   61.171928   58.098991    2.160580
H   89.017159   96.192932   11.352365
H   16.840462   46.161793    7.582367
H   97.586685   76.572906   81.001114
H   31.681915   47.812973   80.065994
H   48.239830   71.776802   51.981934
H   58.054977   70.371246   98.452141
H   29.117367   63.392670   57.286842
H   33.778973   43.909595   25.884195
H   19.855236   25.709749   55.707973
H   95.527031   87.554344   59.624500
H   72.249664    3.946714   24.388914
H    8.703372   21.317581    6.696357
H   26.606333   73.943405   87.139809
H   43.119087   74.900612   39.220848
H   68.220795   62.962425   50.853859
H   96.787575   16.294540   53.411987
H   10.946887   46.581329   95.777870
H   16.785980    5.145910   10.983884
H   49.218285    1.663229   29.803404
H   47.889122    7.541379   20.665234
H   26.503624   20.213308   72.099335
H   98.617371   49.214485   59.041485
H   43.276180   52.565563    8.525125
H   79.164238   37.927986   34.769775
H   35.436398   80.344681    4.371100
H   99.986099   59.851379   55.382469
H   12.996031   21.063099   96.484230
H   41.847630   16.494160   94.575081
H   63.679668   77.600433   52.423828
H   56.389431   24.304594   42.382912
H   47.138237   99.809013   32.421402
H   84.795952   73.499413   87.199615
H   43.330311   98.452286   83.034485
H   41.644260    3.084556   89.655876
H   67.148460   38.296265   39.727180
H   11.645084   61.379227   55.769623
H   17.135353    4.756647   24.240736
H   97.080917    9.579826   97.001816
H   74.329338    8.494369   23.146843
H   16.892426   11.612058   41.203079
H   11.817268   57.456020   95.834541
H   73.652954   43.697582   83.715950
H   36.894997   47.939594   95.384628
H   99.217705    1.796665   68.257858
H   64.766747   15.600363   40.850021
H   35.928207   57.074760   50.878353
H   43.816654   36.493740   57.158630
H   28.783760    2.629218   12.274958
H   62.197243   45.476284    2.680130
H   86.328819   78.186646    0.489044
H   96.901268   47.949501   84.057045
H   87.294983   89.427315   95.818176
H   32.834953    4.274981   28.453571
H   42.352104   58.299881   62.284798
H   23.839808   79.361290   89.723381
H   68.374901   71.621429   36.261330
H   97.605492   32.642292   14.339111
H   92.063148   87.603386    6.920080
H   21.993605   83.081680   40.728352
H   63.952251   67.048317   69.571808
H   96.215500   45.267811   49.021141
H   61.766701   55.970997   78.923386
H   65.851456   58.342052   47.875797
H   52.087166   62.572464   51.890846
H   95.524948   54.143646   97.443359
H   43.404812   52.531342    6.858674
H   15.554133   73.180710   75.451424
H   86.641602   12.232841   36.848797
H   54.761482   99.115730   57.487289
H    1.174238   80.399155   66.531349
H   13.977205   37.771065    5.218578
H   17.984901   93.704300   24.633270
H   38.978485   25.110119   92.782669
H   86.128632    6.759620   87.047554
H   65.514908   11.801311   36.227608
H   18.727909   83.619728   16.215492
H    8.023781   98.115753   80.635033
H   25.933502   84.807320   22.360672
H   39.636826   28.883129   75.641335
H   17.178205   40.154633   11.089922
H   74.899223   48.958790    9.754135
H   13.689682    6.551751   27.138998
