100
TIME:    6.186, STEP:  6186
H   98.988846   54.734428   93.482559
H   29.632233   40.074612   68.153847
H   86.096100   18.949490   50.730366
H   82.514908   77.786774    1.086290
H   39.763611   68.592606   97.978271
H   32.092220   94.506340   91.366539
H   28.762409   79.046394   74.206337
H   33.678894   23.769787   40.216152
H    1.564204   91.534622   10.699739
H    5.798441    5.205540   49.924656
H   24.848373   15.149445   43.882507
H   19.737846   33.762669   52.602592
H   49.325363   87.510399   10.349541
H   48.786842   86.008888   27.997372
H   55.741158   17.468811   53.417004
H   52.798492   70.678810   19.548958
H   26.665901   91.126991   36.524330
H   33.351749   93.828461   85.086464
H   41.615185   37.864128   89.264984
H   25.855949   74.444374   37.504234
H   97.190720   40.381794   89.344658
H   55.438187   52.295990   92.483261
H    3.150496   44.311882   55.361984
H   44.289570   10.830782   47.647655
H    8.337962   95.578384   82.224892
H   18.347044   43.786377    8.714081
H   28.652843   85.332596   22.706343
H   10.585446   45.181267   71.251022
H   45.679710   10.334515   64.756561
H   38.191181   37.736443   75.157974
H   59.515343   76.765678   19.962303
H   56.345036   81.598572   26.595024
H    6.090082   15.885187   55.080688
H   39.475533    6.812763   11.145254
H   27.003815   91.303078    1.411089
H   10.376217   69.942757   99.977364
H   73.116280   77.990356   95.898048
H    8.314838   45.747799   58.969212
H   83.959412   46.633537   44.842690
H   80.541016   33.070469   24.735662
H   12.482552   68.437538   88.085182
H   78.891541   65.861542   95.766350
H   64.524017    0.595767   48.294891
H   84.346603   16.474630   85.570030
H   20.066425   87.824265   85.462753
H   98.275597   80.905319    8.292509
H   90.062790   61.253799   84.844719
H   56.569782   59.083771   51.332539
H   45.851547   20.125687   97.711014
H   55.618038   24.886526   51.007332
H   43.076832   72.425049   18.637131
H    5.760942   89.724884   67.963722
H   37.188755   57.877258   43.595913
H   33.438072    6.270173    4.788134
H   48.256676    0.715851   52.964222
H    1.300415    6.026651   82.040756
H   88.417595   11.052339   44.327583
H   65.433258   92.695869   54.218613
H   78.153076    0.142161   36.583061
H   50.805740    3.263739   87.666039
H   49.918507   90.894424   32.086674
H   79.364693   70.363663   15.456162
H   94.027763   85.161293    9.277863
H   67.822372   75.460876   59.192738
H   77.856689   66.779709   71.644188
H   21.330673   34.748589   11.948308
H   91.253769   62.225887   65.722305
H   53.056465   71.321144   61.929173
H   65.213356    5.299812   72.258484
H   55.710358   59.281441   88.707184
H   25.599594   74.505539   87.943306
H   63.902004   46.223755    9.531360
H    3.651997   12.322342    3.136682
H   94.032799   57.906094   35.601830
H   60.421337   37.460247   70.338760
H   71.901070    4.036848   79.689636
H   28.603951   90.386375    0.451129
H   22.609859   46.233391   56.070686
H   58.152531   35.348492   86.699028
H   96.158249   72.038857   87.991814
H   31.922800   93.278671   49.711491
H    5.489385   84.587860   69.482109
H    9.152375   10.570357   19.066452
H   75.735832   41.508812   98.422234
H   51.122581   61.948669   48.089020
H    8.917713   36.275887   71.357788
H   80.303673   53.580193   18.515844
H   55.516899   10.063345   31.438599
H   84.059677   49.745354   77.597298
H   19.412924   54.768719   45.351028
H   77.179253    7.458483   64.098801
H   36.000256   60.725571   51.392311
H   81.988068   13.129209   97.377457
H   45.120090   88.470650   43.911438
H   49.640144   95.624802   58.233616
H    4.859841   51.452911   47.934067
H   71.586815   22.681925   81.426666
H   26.336916   92.542252   54.696068
H   14.026141   63.515713   26.894730
H   23.447748   19.892490    1.822866
