100
TIME:    7.428, STEP:  7428
H   14.997101   40.837502   92.345474
H   95.334061    7.375365   46.464870
H    7.451448    8.304309   36.147251
H   82.723373   26.617451   33.008381
H   28.637697   68.144295   64.301605
H   12.828496   93.160789   14.365517
H   63.666874   62.913174   71.332428
H   36.060143   31.218304   26.179329
H   71.033455   72.121445   32.520359
H   71.874611   23.040071   98.553993
H    9.320557   65.124283   24.247282
H   72.336441   96.018066   64.195869
H   70.090797   12.378994   86.932365
H   87.291374   82.180702   22.513927
H   70.826485    6.527245   93.690460
H    2.858854   62.048950   16.451921
H   26.791634   73.274445   49.588497
H   59.912159   33.392395   42.033684
H   60.955105   89.966324   54.696415
H   92.395065   48.069729   22.065348
H   23.488663   16.736092   55.632442
H   74.509933   53.944763   86.715485
H   86.567696   34.210777   19.826456
H   28.889296   25.688692   55.406662
H   63.916328   97.081711   91.397377
H   12.583675    7.125084   91.874611
H   21.553812   33.703377   47.352657
H    5.789145    3.153626   12.301917
H   72.685478   23.018190    6.047131
H   85.816086    6.996552   73.893394
H    8.393096   88.138794   21.699287
H   34.765621   47.282177   11.616859
H   93.574959   25.014242   66.969856
H   91.952003   92.990913   58.821259
H   96.093117   97.266228   76.977859
H   18.341072   67.221619   96.073372
H   92.240982   32.506958   93.762787
H   56.977867   23.015575   46.614037
H   31.533924   19.573092   24.483742
H   63.557877   16.798590   22.453711
H   27.599993   11.056996   17.344938
H   74.222527   70.732056   59.171215
H   75.212616    8.046257   38.005650
H    5.041689   37.321190    7.006349
H   12.332195   38.820774   91.743721
H   82.242699    4.593823   13.338324
H   99.765915   28.798550   96.765160
H   56.640987   71.875977   28.180065
H   82.157722   17.263500   48.168983
H   81.692139   43.792347   64.167793
H   42.991550   52.518234   31.727821
H   66.129379   74.476059   86.434723
H   62.953205   65.078796   71.463173
H    4.679298   86.008896   59.593277
H   49.366745    9.558934   63.529636
H    2.847324    4.720188   39.760147
H   67.153503   75.214546   62.452065
H   72.951584   75.404335   22.227175
H   76.104790   52.627392   41.238167
H   68.846275   98.727997   52.340599
H   28.264891   33.135574   35.250511
H   35.283699   58.803299   59.262321
H   78.348091    0.409225   24.110199
H   53.107975   82.226532   25.468693
H   27.152122   67.583313   87.305992
H   45.033569   73.005486   85.385178
H   91.605774    5.168682   25.686495
H   67.262962   42.353081   21.303955
H   27.112335   16.057617   94.360840
H   80.883583   21.734217   86.088928
H   86.159386   90.000732   73.047493
H   61.588718    4.960622    0.516329
H   22.671862   50.892414   71.297424
H   66.685905   79.300781   61.806946
H   20.285353   39.252522   64.497650
H    1.257146   83.638329   96.119698
H   41.404011   82.888374   22.477800
H   80.961273   65.022957   24.659914
H   17.713606   31.700344    0.552805
H   35.248398    4.380711   80.992409
H   56.230293    6.128427   23.944305
H   98.688332   92.642349   65.576729
H   87.712608   31.340490   37.348526
H   61.182751   47.789425   84.984154
H   90.647903   84.254967   27.691141
H   80.336349   81.897705   57.606094
H   63.254108   63.276360   77.739021
H   75.491692   10.677572   18.561111
H    9.835042   80.593315   67.439339
H    9.603387    3.666225   89.750214
H   28.007099   74.521278   90.327560
H   27.895678   54.135788   75.057579
H   61.602604   50.397167   93.423225
H   65.152840   63.821007   27.657404
H   28.167343   84.374619   86.774445
H    7.443978    2.408965   83.782936
H   73.002708   93.957581    9.997518
H   23.939562   53.995708   29.765055
H   54.860222   68.878105   22.864223
H    0.593931   88.019455   82.177643
