100
TIME:    2.472, STEP:  2472
H   50.150787   95.326408   96.882828
H   32.507118   38.772713   33.932941
H   22.246252   51.749374   94.319099
H   81.891525   30.804659    4.663711
H   73.029572   70.899216   98.679459
H   89.685799   98.529991   23.556040
H   23.413311   28.258774   83.766472
H   25.591972    2.462106   81.223366
H   92.861458   48.620712   44.483768
H    7.288034   51.877617    4.489041
H   70.315613   65.708817    1.634302
H   61.493484   47.599167   16.969381
H   86.018303   12.148064   79.431938
H   32.682213   97.456459   45.360966
H   10.568604   49.218048   31.945036
H    2.130019   95.518829   27.844305
H   25.322327   45.474312   98.423187
H   53.970261   74.487221   13.844971
H   83.766960   82.056992   93.597839
H   25.919037   53.317181   84.637917
H   17.584641   10.121418   90.149109
H   99.373398   47.365601    8.764603
H   52.739265   74.517601   61.623581
H   89.365906   66.329468   23.481369
H   41.170403   90.121826   54.800583
H   35.324207   53.949764   57.470482
H   48.915909   39.719128   49.020527
H   23.962015   71.824318   48.483898
H   64.922012   73.371223   40.318871
H   95.781471   29.658249   79.905693
H   13.344686   43.723629   13.803089
H   21.840614   84.213158   70.418648
H   44.482227   87.619331   20.494238
H   82.548790   47.178665   67.609634
H   19.324448   72.055847   75.255302
H   87.484940   78.673515   12.142167
H   16.896313   14.005793    3.249325
H   61.816803   13.709438   96.884407
H   40.729553   27.555101    4.757367
H   30.358992   80.763161   32.525669
H   66.305870   41.003300    0.583906
H    9.451935   22.802170   18.937967
H   32.533619   78.323792   80.028160
H   21.505091   54.202660   22.433374
H   42.227772   34.358288   67.646706
H   46.195370   10.066395   93.207253
H   61.044285   59.273590   49.186806
H   56.371433   20.834887   21.531242
H   37.288330   27.718456   45.865715
H   77.730553   68.372627   10.770420
H   43.356022   30.988264   79.481216
H   25.266844   34.355778   11.778950
H   60.158783   36.342224   59.301010
H   19.448391   66.877480   40.898346
H   43.964844   75.214386   21.381666
H   96.659256    9.933996    8.474091
H   52.964779   18.218788   91.095131
H   41.986420   43.437943   49.883133
H   85.238289   43.217236   21.706087
H   95.893021   17.793692   93.301033
H   15.636114   63.610485   21.659595
H   11.177288    4.934057   83.504517
H   41.907131   38.581825   63.969406
H   12.786749   55.241562   60.028919
H   30.439339   63.410648   25.773394
H   49.486305   19.382454   92.349281
H   89.234993   33.826603   86.409988
H    9.607878   58.913635   84.378494
H   80.106804   72.164177    5.192033
H   80.466125   72.478584   96.527802
H   43.535896   27.205061   32.496792
H   70.138611   69.484192   37.609894
H   45.812958   96.032341   98.362297
H   75.789970   92.946182   56.290245
H   81.356102   32.161495   88.791977
H   84.097862   66.006096   29.595707
H   91.396454   12.289999   34.768528
H   48.119381   89.082695   50.960339
H   80.053528   46.257687   45.259613
H   78.293770   74.324677    7.956209
H   59.257290   54.855633   27.734024
H   26.800339   60.371597   80.070168
H   74.205338   48.518066   65.345673
H   20.221149   23.693819   37.639923
H   31.964199   94.258636    8.119754
H   94.396057   99.854225   13.446521
H   32.254021   23.618393   41.417877
H   95.749481    7.380180   70.038338
H    6.983090   56.534996    7.975768
H   47.780842    7.569107   12.586535
H   25.187073    6.913136   85.665848
H   61.193760   81.418266   80.624931
H   43.891911    1.703902   10.155663
H   86.155922   63.179333   93.493080
H   13.851192   28.302864   72.890862
H   98.098618   98.115364   39.767059
H   66.386612    9.543485   95.022331
H   15.941474   37.285278   16.482231
H   90.953209   47.506115   37.982307
H   92.760849   15.207968   59.596832
