100
TIME:    4.414, STEP:  4414
H   18.821453   17.234924   95.104874
H   78.571724   44.052612   56.423645
H   55.627342   91.465263   71.531654
H   82.217484   50.793877   98.215950
H   55.635254   26.559069   46.022385
H   59.576931   96.426079   15.879108
H   21.632999   59.393291   35.633556
H   72.954597   70.468231    2.914408
H   45.123390   61.905289   22.241022
H   54.217125   79.761864   80.537720
H   89.675507   43.849293   14.571014
H   87.370171   44.941551   78.735909
H   62.400650   94.666298   86.424805
H   36.525139   91.470680   93.146835
H   34.192482   75.751221   38.595371
H   24.047279   25.664604   66.640564
H   69.159492   73.921707   75.212181
H   95.459969   80.046928   46.514599
H   14.017914   63.528297   95.909943
H   73.595268   12.079882   16.858225
H    2.343702   16.789349   37.440239
H   85.554825   49.943634   43.385391
H   26.810768   58.723442    6.059718
H    8.933113   89.620667   79.251328
H   71.714264   36.107498   69.138222
H   26.424818   96.165314   75.345314
H   81.455070   58.994152   87.548622
H   60.100422   62.470306   12.673816
H    7.148965   49.564419   48.519630
H   70.245682   81.593010   34.288460
H   89.773689   17.867718   60.157310
H   44.459789   30.557816   90.637978
H   81.273903   45.532738   95.444931
H   64.603546   69.205994   85.796867
H   71.051010   25.255699   93.510880
H   56.339008   31.152485    5.550900
H    3.159439   42.886215   56.271229
H   81.552864   78.174660   33.925106
H   58.758144   85.244621   16.562887
H   47.443657   98.958885   85.318909
H   33.585556    7.640307   46.337627
H   34.915970    9.959991   10.175047
H   49.261204   89.969391   20.302011
H   97.495773   86.743683   12.312634
H   73.773155   57.735588   33.828999
H   21.141033   47.107105    1.091212
H   76.219040   64.886192   67.837456
H   56.475147   40.832733   41.691216
H   94.057358   66.881195   68.399750
H   18.452404   97.916298   74.942726
H   43.207859   43.500557   99.957321
H   19.644503   54.153698   84.291016
H    0.430979   47.602600   46.511440
H   74.472557   35.186790   26.593449
H   89.345398   45.420811   37.890217
H   99.089127    7.890623   42.363831
H   76.079544   62.182610   75.795540
H   97.380264   60.039879   99.859726
H   38.399170   25.271549   72.618782
H   67.739105   67.063873   38.065926
H   38.139587   73.299461   70.244789
H   42.253136   86.857193   95.633698
H   73.727730    6.079326   30.789238
H   46.141365   65.808105    7.297764
H    7.520841    8.304779    6.625415
H   30.185982   22.839668    7.173704
H   33.425491    0.967214   80.169846
H   75.460533   69.978531   77.217323
H   76.896072   32.624435   83.394348
H   19.814356   70.155273   92.438507
H   81.867638   95.070984    9.198029
H   10.013075    5.032811   79.794731
H   19.190458   99.973427   48.574989
H   33.040401   70.054008   40.888695
H   74.986946   34.932140   36.009609
H   30.007349   90.468712   98.923935
H   67.718430   43.970448   69.112679
H   39.358074   62.101223   58.209991
H   73.179024   40.553417   66.933830
H   83.054230   68.559288   40.651115
H   97.248093   74.946518   43.802959
H   72.513588   73.054337   17.681597
H   97.068901   80.936951   50.311588
H   53.825348   89.874336   60.265282
H   37.404678   72.787392   19.864487
H   49.705402   71.189827   48.304825
H   61.955803   82.419159   34.020172
H   27.005442   51.898659   49.839317
H   47.287216   48.407433   92.089973
H   76.082199   27.671562   82.006561
H    4.661718   11.775543   26.677408
H    4.888146   27.456070   17.633493
H   68.399483   59.960358   60.345928
H   73.858200   80.975021   24.432367
H   80.274849   54.351158   17.515926
H   58.499893   21.427299   39.460228
H   12.240026   20.990826   83.335587
H   23.068136   53.820251   85.403481
H   98.440491   55.877316   75.318657
H   13.382261   65.360054   72.526199
