100
TIME:    8.903, STEP:  8903
H   15.248719    5.574143   90.995071
H   54.596909   87.304382   39.467663
H   32.805294   14.421470   18.832615
H   82.970947   65.846855   52.159798
H   15.420630   86.371964   24.308258
H   89.956909   91.562813   60.440674
H   86.363686   62.512535   86.679359
H   20.128052   58.823589   90.749596
H   34.775139   30.305550   39.675121
H   31.587534   44.218891   56.309181
H   72.119659   24.473080   82.167122
H   16.037560   69.952019   59.203667
H   76.034851   23.101196   40.351700
H   14.258388   77.634346   34.762531
H   88.741829   74.772987   22.755844
H   43.553421   33.040123   94.013733
H    8.180699   70.834023   83.863564
H   91.448776   61.618965   90.904861
H   83.932968   51.846531   32.406170
H   52.651424   16.748896   22.490198
H   35.960075   69.896210   15.601946
H   15.919625   55.902847   61.105591
H   66.874321   22.219290   77.624786
H   91.840744   43.333954   45.860256
H   11.162557   80.108154    2.289527
H    5.628038   63.643051   53.070660
H   94.363136   72.391251   76.617783
H   81.332123   72.001648   61.060654
H    4.757835   56.841702   36.321709
H   42.373024   70.490128   91.151917
H   66.446770   20.405258    5.002052
H   27.898029    6.533168   75.068779
H   97.471573   17.096535   99.849503
H   54.275269   57.815857   96.682976
H   59.384666   85.587990   66.719742
H   46.559818   82.753281   91.436989
H   33.712799   78.487556    9.986861
H   96.015450   96.021996   50.700340
H   69.275230   87.436913   81.545746
H   24.630697   78.714653   38.504074
H   26.794146   61.663345   52.095303
H   49.917587   76.516281   34.475079
H   87.906403   16.894493   44.545414
H   10.858425   62.085167   51.221767
H   84.386307   80.633369   17.965231
H   63.202492   32.721905   19.330736
H   11.296882    9.013365   10.928362
H   56.731014   87.068008   19.444324
H   25.274239   95.104408   89.329559
H   12.657921   66.243919   61.036137
H   42.890270   10.116131   47.279861
H   37.815304   37.606548   89.609352
H   93.540215   73.631348   85.800522
H   70.515656   61.948257   24.680573
H   31.925266   38.821220   76.066299
H    4.684435    3.168632   89.547653
H   60.662056   32.654350    2.736761
H   63.120056   36.109062   84.233665
H   92.438698   14.952062   28.001917
H   71.511681   12.101705   10.388084
H   21.308687   64.538574   20.248554
H   82.933037   45.074203   92.521980
H   78.485947   99.757835   22.965027
H   54.393772   90.261429   85.422943
H   85.698700   49.776653   24.666529
H   54.423500   99.679222   72.599205
H   73.264023   56.160084   96.898239
H   65.374634   26.709923   91.817490
H    0.624986   10.073524    1.851100
H   10.840301   95.819901   82.960495
H   39.316982   89.639275   55.357216
H   40.126770   55.985741    8.632699
H   26.499542   77.931175   33.476933
H   34.219044   85.948830   74.167732
H   91.338120   41.424419   76.333130
H   36.130325   78.172356   96.870895
H   75.365067   55.223957   48.639809
H   50.253399   68.580879    6.128042
H   88.444847   27.367802   17.013857
H   62.913811   24.030958   53.919792
H   85.106407   21.387980   12.103459
H    9.370560    2.209973   42.178864
H   81.009010   56.007847   77.820107
H   62.660034   74.008156   50.265209
H   18.828979   91.984787   84.707718
H   46.390385   36.075539   60.034561
H   61.766087   56.031532   48.072624
H   99.213768   92.647560    3.267644
H   40.448246   98.467995   55.375740
H   79.194412   42.983543   42.477142
H   88.370110   54.165424   21.477196
H   37.030743   65.070084    3.167284
H   56.152943   94.648827    7.487239
H    7.706121   53.307606   27.113401
H    2.661904   52.253834   20.667448
H   29.272919   44.161743    7.597399
H   55.923943   78.603737   25.168926
H   21.092463   26.981232    0.151846
H   84.594749   75.247505   99.316994
H   92.211426   50.167278   40.086086
