100
TIME:    3.922, STEP:  3922
H   52.093170   62.353943   95.555313
H   92.171959   17.388613   25.398237
H   47.170341   56.068230   77.304787
H   82.134903   71.063652   25.184462
H   60.042053   87.123100   59.362900
H   67.206551   96.959099   67.155663
H   47.417660   26.169628   97.158440
H   11.624832   27.904888   48.089458
H   57.217690    9.209108   53.211895
H   67.662743   72.697472   61.273392
H   35.440140   24.052479   61.961689
H    6.147186   20.279993   13.756922
H   93.784286   24.421112   35.314240
H   60.886406   92.987160   55.706982
H   28.207954   19.698509   62.247196
H   43.829834   68.696587    7.480668
H    8.723224   41.380070   30.423483
H   84.949181    3.973675   63.574795
H    6.354914   42.886909   69.987152
H   86.853203   22.528200   83.360649
H   31.539673   65.770752   50.792015
H   38.386307   49.290497   85.283768
H   33.379677   62.724846   20.137165
H   54.645210   83.719910   15.790773
H   89.311432   75.125748   65.504677
H   28.672804   10.747840   21.561785
H   23.880033   79.445023   77.789101
H    1.615455   39.505402   96.410759
H   96.450485    4.926773   71.777321
H   51.379776   93.769890   95.176758
H   70.412300   73.748268   99.082787
H   13.394563   44.149826   36.184853
H   46.618214   81.530357   51.121689
H   43.815765   14.294752    6.524109
H   83.280441   62.446983   63.549202
H   13.565241   92.579010    7.148876
H   55.969193   60.903793   17.503408
H    1.889929   87.175941   99.207069
H   79.524353   95.965080   64.241295
H   93.785027   45.019005   46.609455
H   67.210861   90.757858   34.746319
H   79.134109   87.879517   87.060532
H   45.023319   87.019012   84.763725
H   28.912294   78.500641   64.206177
H   16.451567   77.148315   91.726501
H   27.488476   37.722950   99.092567
H   72.375290   38.130089   63.114647
H   56.448872   35.765289   11.249016
H   79.673325    7.630306   88.023895
H    8.133586   90.431496    9.355358
H   43.245396   90.999397   94.769760
H   95.735214   99.806549   16.589359
H   90.228401   44.749817   75.086617
H   85.868675   43.215874    4.884142
H   28.518326    2.302482   33.704884
H   98.473526    8.408529   59.112671
H   44.888912   76.378960   29.002386
H   34.015617    6.502901   12.533094
H   99.597511    4.482333   10.388653
H    0.208261   29.246031   52.059578
H    7.103073   96.181786    8.606573
H   59.715172   91.436661   17.895393
H   40.324986   39.653252   64.527153
H   12.355745   63.129211   20.657047
H   87.993401   47.600735   60.807941
H   60.410469   47.298531   78.083054
H   72.899002   83.955750   56.416668
H    9.446451   41.841080   53.696880
H   52.375374   67.976425   14.250782
H    9.846506   45.408310   93.474518
H   97.490379   28.547298   15.100662
H   50.579781   21.361786   43.772480
H   51.270004   24.308422   61.191048
H   43.873470    1.186974   70.122215
H   51.265820   34.230206   98.711708
H   18.374750   58.937347   32.029049
H   23.046785   86.613815   60.411686
H   16.243023   94.270332   31.037233
H   49.585800   41.998577   61.444229
H    7.182908   95.352928   83.037468
H   87.623703   69.856552   14.397843
H   35.597183   69.841202   58.822388
H   65.943855   72.723083    3.451107
H   19.977911   47.773262    5.203447
H   61.360550    3.560263   67.558517
H   61.030201   53.117439   14.138942
H   29.096243   18.191582   10.559565
H   19.087091   91.289589   54.955559
H   37.077255   75.801659   96.113899
H   19.580809   47.915062   64.416901
H   84.526978   85.208061   16.287271
H   68.484711   90.457573    8.258217
H   36.861214   45.197205   22.298807
H   26.303829   51.131790   91.258995
H   88.780647   98.419975    6.210959
H   17.862747   40.855232   64.872520
H   51.292267   92.756310   11.631079
H   21.262625   49.631165   93.278664
H   21.878197   53.756496   16.527863
H   82.821297   77.987373   19.921041
