100
TIME:    6.380, STEP:  6380
H   85.869217   36.943596   93.304947
H   24.275002   50.587780   80.385414
H   89.432251   32.906166   48.452488
H   82.547470   69.794220   90.453125
H   38.025970   84.142563   92.717987
H   29.083172   94.296165   10.578693
H   18.594845   92.145302   89.377388
H   18.430878   40.552670   22.403118
H   96.795296   72.882370   98.487923
H    0.498945    7.991278   57.520542
H    6.802963   22.955465   25.195942
H   12.332893   43.486942   38.793236
H   36.945786   75.779106   91.072685
H   39.180977   85.410927   42.761395
H   58.097481    0.139790   44.087917
H   44.998352   53.710915    3.444939
H   11.065503    3.959121   54.184914
H   37.500477   84.388367   78.360878
H   44.636074   46.003212   99.486572
H   20.629707   70.323769   50.712669
H   85.678482   21.067936   84.078453
H   74.037155   52.553528   75.962357
H    0.560061   42.734093   49.811600
H   26.263638   13.151583   33.238857
H    1.399642   80.194199   83.657631
H   17.462683   38.050980   90.470772
H   11.923985   77.268997   26.556089
H   94.216232   54.236534   77.662827
H   49.898003   27.935272   55.585846
H   45.630177   32.934990   90.580643
H   67.150581   94.162804    4.613681
H   68.594360   76.237640    8.635460
H   19.755398    1.691662   72.557739
H   47.672340   89.033859    2.972766
H   22.175720   76.614540   13.214620
H   27.239889   85.137489   99.367561
H   91.724129   70.885864   11.184297
H    0.296718   42.197033   72.659615
H   75.771484   42.406364   26.042662
H   62.267811   14.908806   39.999607
H   99.224380   75.095039   92.655739
H   62.542328   66.622314    5.670695
H   66.193573    1.759544   62.307022
H   71.958145   19.730856    4.538786
H    3.238400   80.169174    2.063674
H   95.771263   84.605576    9.080664
H   91.578415   71.803970   86.706688
H   56.580143   61.081909   63.336170
H   51.521820    4.059128   89.973038
H   59.689800   27.840071   37.442192
H   43.063511   53.695831   20.681892
H   15.190374   71.723740   55.228920
H   41.213154   59.002136   32.327892
H   28.945961    3.104604   13.348308
H   32.810326   17.717381   54.614536
H    1.542042    5.822582   75.436539
H    0.717182    5.454221   62.778542
H   50.987457   74.375160   49.221786
H   93.454376    8.340079   21.690269
H   38.004333   18.175716   82.148216
H   62.155994   81.871719   16.961506
H   72.479256   68.557938    6.678016
H    7.198195   71.923256   95.974701
H   81.143295   76.517670   53.925053
H   85.556183   51.284779   89.710320
H    9.413628   25.104240   23.419233
H   75.689011   68.933319   75.088394
H   39.655617   82.415993   71.203491
H   74.881386   91.360229   60.091564
H   59.640030   69.038994   88.298676
H   19.438667   61.305984   85.616585
H   47.906536   39.785309   23.735165
H   91.002853    2.726837   98.162659
H   89.761223   45.628643   24.075300
H   69.775017   37.737026   85.045059
H   76.486427   16.470509   66.635132
H   46.223232   73.596092    3.891795
H   31.724331   33.547432   66.784767
H   67.455528   34.778652   88.862938
H   86.644150   61.470924   71.278496
H   35.719261   95.285690   61.306614
H   20.047419   85.846085   53.253063
H   21.423904   13.814372   37.542572
H   89.083397   58.109642   80.702446
H   41.676567   49.813309   29.282837
H    4.452391   43.402580   84.829681
H   93.260490   39.474815   27.766485
H   58.636955   94.539551   29.427139
H   88.085556   38.943565   76.010628
H    2.260468   46.786526   52.285309
H   85.118523   17.933899   68.195724
H   50.354290   75.316422   55.088127
H   94.423889   18.950451   12.379771
H   63.868549    0.240421   56.992584
H   46.286232   78.248398   62.691685
H   20.883469   43.791901   37.913773
H   56.187828   33.814636   70.269653
H   25.962450    2.142003   50.801918
H    4.784687   64.352592   10.644684
H   35.497265   14.914165   83.134972
