100
TIME:    2.360, STEP:  2360
H   57.725006    5.597344   96.985367
H   35.622597   32.699837   26.868002
H   20.321081   43.691513   95.633308
H   81.872726   35.419029   10.802965
H   74.032745   61.921925    1.716200
H   91.422127   98.651329   12.464235
H   29.283245   20.695663   75.007927
H   34.394951   92.772339   91.506325
H   95.614632   59.389023   51.534184
H   10.348398   50.269463    0.103003
H   80.733582   61.202229   12.422682
H   65.768158   41.985153   24.941366
H   93.143059   18.924309   90.564262
H   38.227867   97.801674   36.837406
H    9.206116   59.222443   37.329185
H    6.633535    5.314837   37.141373
H   34.326965   38.067574   88.225677
H   51.576828   79.933754   17.728210
H   82.022087   77.358994   87.696716
H   28.936249   55.695232   77.012428
H   24.230881   21.271687   93.189392
H   88.635849   47.216919   18.302444
H   54.234627   75.428490   64.827927
H   99.771912   64.986206   31.799850
H   45.176262   99.005127   53.974289
H   35.837757   57.286556   67.968239
H   58.574234   44.375256   46.797993
H   33.412209   66.596535   44.781384
H   62.486710   63.209602   45.613304
H   91.486794   32.430222   71.001884
H    8.938497   33.679928   22.665401
H   14.768873   87.308128   80.787056
H   36.592701   95.813911   10.404393
H   77.816612   57.442825   72.328140
H   22.108810   80.522156   68.434746
H   77.747147   69.875664   12.527116
H    6.154083   18.107782   94.424194
H   66.446037   15.759365   88.980354
H   45.457458   29.995104   15.610731
H   40.907764   91.247780   23.713694
H   73.960411   37.160648   97.945114
H   19.517853   17.775192   13.676338
H   31.568899   77.652161   71.937828
H   28.656763   52.325340   11.482631
H   51.942493   38.776867   58.062721
H   47.640316    7.930164   92.752663
H   60.168430   53.182770   48.111000
H   56.365452   19.681749   14.601311
H   34.014771   36.993969   50.333855
H   75.382408   66.668770   18.603550
H   43.364567   41.801048   78.300308
H   19.824156   44.748966   19.131855
H   57.835419   35.692810   65.806023
H   22.041775   68.704384   35.955963
H   52.881470   65.396271   20.431471
H   96.519119   10.051702   12.286835
H   45.864803   21.450478   80.443031
H   50.326263   54.014847   52.767899
H   76.404549   38.485058   30.304415
H    3.284061    9.184683   96.486580
H    8.570959   68.819405   30.391651
H   15.151958    5.976751   88.571655
H   34.309841   46.219276   71.653000
H    5.095851   54.632309   63.070057
H   25.993843   72.355530   15.343034
H   56.366676   24.950325   85.726967
H   98.220833   29.954672   81.002762
H   17.344627   52.508362   79.024246
H   74.525261   80.211784   12.216599
H   78.196594   66.845772   96.763641
H   47.092293   34.825691   33.840908
H   79.373962   73.201233   29.409468
H   53.115448    1.572628    1.233744
H   78.254326    0.033342   62.946739
H   75.955711   32.001705   80.301743
H   81.450645   58.827744   37.131611
H   81.227997   21.997458   32.787815
H   42.857418   96.405693   44.774670
H   74.682190   46.586666   44.009491
H   83.786446   80.424042   17.604958
H   57.065517   53.696941   21.040359
H   18.396408   59.640152   89.435402
H   67.119888   46.648438   54.678196
H   12.516290   14.109835   47.869904
H   37.417572    1.263895   18.976776
H   96.973206   95.740700    5.668752
H   24.773794   31.761703   36.077301
H   93.946503   16.347015   71.203865
H    4.658551   62.771080    8.892000
H   57.683552   12.177383    8.583026
H   20.603577    0.865547   83.300613
H   52.906040   72.996391   78.490410
H   36.705631   98.347763    1.490898
H   75.331215   56.385265   85.941078
H   15.787899   38.335457   70.317131
H   88.847885    2.538078   45.551971
H   75.276749    3.116201    1.463533
H   15.530250   36.331665   18.274529
H   96.288658   47.023327   47.363777
H   85.805283   18.084675   70.383942
