100
TIME:    7.968, STEP:  7968
H   78.478996   91.317711   91.851089
H   80.420120   36.638531   80.513626
H   16.733553   47.153458   29.807480
H   82.814011    4.368076    3.408720
H   23.798906   11.427587   49.659576
H    4.453824   92.575768   67.844612
H   35.367466   99.374176   13.561146
H   93.617203   77.934776   76.598930
H   57.759224   20.202335   98.529312
H   57.125465   30.793673   19.698944
H   59.091080   86.852493   72.230743
H   51.726379   23.085033   25.757790
H   35.656898   79.693100   33.269260
H   60.553398   80.516273   63.609661
H   77.385323   58.291794   67.718781
H   81.146881   14.818699   71.627228
H   83.367805    8.992859   98.746826
H   71.457504    7.116176   23.316143
H   69.366394   12.619504   83.146912
H   77.843674   36.604122   58.831093
H   91.444313   62.978680   40.978054
H   26.280260   54.661621   40.729462
H   79.357918   29.820017    4.375648
H   78.716278   32.148651   15.300538
H   44.602364   54.258812   95.385414
H   10.037594   91.206833   41.058235
H   74.990036   11.255876   58.068447
H   60.224091   28.358999   30.151480
H   84.427116   72.011337   80.520775
H    6.522196   93.631149   16.821743
H   29.645830   36.561760   78.976280
H   68.861687   32.364117   61.626396
H   31.611765   85.505867   15.617322
H   14.768535   43.502998   36.071320
H   82.654091   56.380608    9.830742
H   65.282303    9.516721   94.375984
H   44.033718   12.729559   36.312466
H   34.660515   13.132299   84.720985
H    8.738996    7.808794   72.154015
H   12.697262   66.246735   64.941406
H   90.695602   29.584066   30.067106
H   28.714409   72.849670   86.740685
H   79.859833   11.285507   77.009865
H   70.558853   46.384911   59.803333
H   65.489784   17.516911   37.953644
H   75.271873   14.891616   15.532156
H    3.987092   58.165230    1.949211
H   56.673946   77.437805   61.592236
H   97.945076   72.539680   26.626682
H   93.030029   52.011494   26.409477
H   42.954472    0.384115   37.421387
H   92.372971   24.367216   50.987335
H   74.151405   68.209900   40.102699
H   92.172913   77.200607   83.422623
H    6.370541   56.883080   68.119598
H    3.519893    4.152161   21.377274
H    1.389518   59.633186   13.810662
H   32.741623   24.408239    8.316993
H   18.693390   75.445305   99.782410
H   33.212936   40.235508   36.981712
H   62.328228    8.023308   93.148476
H   16.118050   53.777054   34.827354
H   15.007655   63.561066   87.080780
H   90.188042   85.168121   10.806430
H   48.587357   24.453062   37.594467
H   11.861603   46.160393   17.314701
H   48.281189   23.837368   51.757549
H   29.961632   73.235649   47.119080
H   54.027466   77.256676   60.495056
H   91.850685   48.855343   84.943604
H   69.012474   53.259705   66.571053
H   17.122238   87.030663   40.097263
H   87.462296   24.182673   57.452572
H   54.799145   45.124592   29.721521
H   46.297302   40.047657    5.440837
H   14.023820   18.246464   59.782898
H   90.446983   36.150078   32.054459
H    6.330812   29.714840   54.483677
H   43.607010   30.114193    6.579180
H    8.767381   74.964592   34.470802
H   66.801888   11.714974   56.219391
H   39.208740   96.144241   20.401649
H   21.867960   40.371250   88.774918
H   98.335457   93.997925   35.663403
H   64.354874   50.473660   75.344810
H   67.910812    1.730956   95.105179
H   99.319481   24.013969    3.488265
H   84.176384   67.467834   12.962204
H   21.043156   50.526482   63.022835
H   61.861507   81.451187    9.054693
H   50.106098    3.681326    1.731431
H   67.850212   94.749496   85.349022
H   96.217773   66.599968   35.182251
H   17.342630   96.582237   64.068779
H   18.829651   36.004921   99.183502
H   52.045731   81.084656   55.891396
H   30.139639   24.946140   78.941582
H   22.897234   80.715660   18.923609
H   29.135735   71.209953   77.634193
H   34.134266   74.160202   30.157444
