100
TIME:    6.040, STEP:  6040
H    8.862104   68.123405   93.616226
H   33.664192   32.162640   58.948032
H   83.585388    8.446048   52.444645
H   82.490402   83.801788    9.089297
H   41.071320   56.890060    1.936885
H   34.356762   94.664513   76.908226
H   36.413967   69.188454   62.788944
H   45.154205   11.139262   53.621838
H    5.153206    5.571982   19.890062
H    9.786730    3.109057   44.208164
H   38.428940    9.275059   57.945389
H   25.310646   26.444401   62.995201
H   58.641953   96.339104   24.856865
H   56.015999   86.458900   16.886303
H   53.966682   30.510029   60.436718
H   58.668701   83.448463   31.668655
H   38.406319   81.469551   23.233374
H   30.229513    0.932776   90.147987
H   39.341732   31.738840   81.572449
H   29.789101   77.545448   27.563868
H    5.854546   54.916965   93.307884
H   41.441025   52.102173    4.916478
H    5.099976   45.499290   59.539078
H   57.855656    9.084200   58.491390
H   13.559608    7.156868   81.146645
H   19.012594   48.102707   22.443352
H   41.243011   91.401077   19.809111
H   22.904408   38.366478   66.425644
H   42.505119   97.088348   71.658234
H   32.592762   41.349907   63.551224
H   53.768776   63.673023   31.513359
H   47.126469   85.633087   40.110985
H   95.806145   26.566851   41.927856
H   33.306801   20.192650   17.295607
H   30.634022    2.341478   92.522644
H   97.684845   58.507545    0.436503
H   59.112823   83.337036   84.393776
H   14.349068   48.420025   48.666828
H   90.121460   49.814812   58.991341
H   94.293121   46.739033   13.248655
H   22.460236   63.427383   84.645485
H   91.195587   65.289001   88.312187
H   63.266895   99.720032   37.749680
H   93.669876   14.024069   71.294395
H   32.730785   93.585312   72.969345
H    0.160243   78.120590    7.699362
H   88.922165   53.313980   83.443443
H   56.561985   57.580017   42.298878
H   41.584229   32.216980    3.534909
H   52.554836   22.664015   61.217270
H   43.086857   86.520233   17.098289
H   98.665901    3.272202   77.547646
H   34.160084   57.030701   52.075970
H   36.818733    8.652509   98.345787
H   59.881248   87.921646   51.722233
H    1.118572    6.180229   87.010941
H   79.161156   15.265355   30.441811
H   76.304840    6.483824   57.979111
H   66.637665   93.973412   47.791039
H   60.439789   92.042099   91.818626
H   40.708851   97.684708   43.469532
H   84.546516   71.722610   22.062630
H   84.116356   95.123940   19.289520
H   57.796661   74.665558   63.157078
H   72.062225   78.439926   58.048023
H   30.299171   42.006706    3.315370
H    2.967576   57.178844   58.673599
H   63.141640   62.971409   54.949528
H   57.936489   15.790443   81.414673
H   52.752975   51.937553   89.014618
H   30.236168   84.439224   89.694344
H   75.940933   51.069183   98.841934
H   13.171810   19.543701    6.880455
H   97.247490   67.146202   44.276817
H   53.382656   37.251949   59.271133
H   68.450233   94.679863   89.514160
H   15.347445    3.038574   97.868385
H   15.750514   55.780556   48.007225
H   51.151722   35.777340   85.070518
H    3.318171   79.992043    0.569870
H   29.065668   91.768234   40.985264
H   94.531387   83.641052   81.694817
H   99.917229    8.128985    5.161960
H   65.690758   29.015270   11.756934
H   58.231438   71.080605   62.242126
H   12.278324   30.912613   61.219147
H   70.552666   64.195580   11.554022
H   53.168816   21.746397   32.952377
H   81.029892   57.874535   78.791389
H   32.321270   60.775936   40.132446
H   71.204338   99.574982   61.015545
H   25.197733   49.744827   48.610924
H   72.629150    8.748273   86.087051
H   31.010387   79.612984   34.066864
H   52.164223    8.702557   54.878574
H   92.800797   57.218414   55.475113
H   83.175743   14.303733   89.823181
H   26.618731   85.317551   57.626717
H   20.981201   62.886364   39.124146
H   14.379507   23.639065   15.887748
