100
TIME:    1.846, STEP:  1846
H   92.485260   52.733688   97.455948
H   49.920418    4.831532   94.445427
H   11.485922    6.713023    1.665373
H   81.786453   56.595177   38.977711
H   78.636597   20.722553   15.652262
H   99.390633   99.208183   61.562153
H   56.220287   85.988319   34.812462
H   74.794334   48.303814   38.700645
H    8.249794    8.808039   83.888145
H   24.393282   42.889183   79.977806
H   28.544601   40.520191   61.932507
H   85.383545   16.220842   61.528664
H   25.838680   50.021873   41.651459
H   63.678459   99.385963   97.720604
H    2.953624    5.135304   62.038612
H   27.301422   50.272049   79.807388
H   75.651825    4.075935   41.428284
H   40.592682    4.929588   35.549118
H   74.014366   55.797043   60.615269
H   42.783096   66.609726   42.016884
H   54.732376   72.442810    7.141098
H   39.354435   46.536446   62.072495
H   61.097267   79.608818   79.533585
H   47.528130   58.821598   69.975128
H   63.560295   39.769310   50.182190
H   38.194584   72.602249   16.146975
H    2.895746   65.743240   36.598148
H   76.781326   42.604748   27.790823
H   51.310410   16.575670   69.910973
H   71.777290   45.151596   30.139854
H   88.718147   87.585175   63.335819
H   82.314819    1.511469   28.370583
H    0.386701   33.419609   64.099213
H   56.099297    4.547915   93.982712
H   34.886604   19.376869   37.136627
H   33.057629   29.496576   14.293756
H   56.853752   36.932472   53.922855
H   87.692772   25.167065   52.707623
H   67.732834   41.101341   65.197632
H   89.320839   39.366924   83.273941
H    9.088272   19.524237   85.835495
H   65.713226   94.706367   89.528366
H   27.141516   74.569855   34.812065
H   61.479591   43.709785   61.225239
H   96.528984   59.054989   14.077246
H   54.271587   98.126411   90.666420
H   55.572132   25.321833   43.397163
H   56.338001   14.389673   82.797966
H   18.991468   79.563377   70.838120
H   64.606102   58.846699   54.552021
H   43.403782   91.423820   72.880783
H   94.845695   92.443939   52.876438
H   47.172836   32.712463   95.656548
H   33.943554   77.088570   13.275576
H   93.799561   20.334841   16.070753
H   95.875992   10.591890   29.784607
H   13.280903   36.281624   31.557501
H   88.600189    2.555362   66.006912
H   35.866714   16.766367   69.765900
H   37.201496   69.678497   11.105271
H   76.147659   92.724922   70.466179
H   33.393005   10.761972   11.827867
H   99.445145   81.269722    6.915374
H   69.801941   51.836273   77.023048
H    5.592135   13.406753   67.476471
H   87.942665   50.502876   55.335278
H   39.460922   12.184566   56.187450
H   52.849968   23.112141   54.452076
H   48.907654   17.144531   44.455208
H   67.781067   40.991699   97.845978
H   63.413612   69.798897   40.007572
H   21.756258   90.259796   91.777061
H   86.628662   26.995770   14.413883
H   89.563957   32.560692   93.495293
H   51.173805   31.270338   41.337627
H   69.301811   25.883512   71.716270
H   34.559570   66.549057   23.695967
H   18.708767   30.014864   16.386868
H   50.037521   48.094578   38.274162
H    8.994097    8.416388   61.886635
H   47.006847   48.379375   90.320122
H   79.830826   56.283340   32.416580
H   34.599194   38.068176    5.722286
H   77.158821   70.126198   94.818207
H   62.444641   33.415916   68.803467
H    8.803066   76.862556   69.975075
H   90.444878   69.133682   11.567692
H   85.672119   57.499329   76.552803
H   93.991402   91.390251   13.096838
H    3.126729   33.326080   90.208046
H   99.568428   73.109177   72.445877
H   14.872562   34.342220   68.694481
H    3.727422   82.944077   61.726761
H   25.650517   25.205778   51.284225
H   24.675999   84.376160   58.505547
H   46.393631   22.834497   72.100586
H   16.075733   73.618690   31.024261
H   13.643023   31.955261   26.499893
H   20.773537   44.807674   90.420425
H   53.884201   31.286434   19.889603
