100
TIME:    2.107, STEP:  2107
H   74.834625   28.798599   97.216995
H   42.660240   18.982561   10.908958
H   15.972258   25.489723   98.602013
H   81.830261   45.842308   24.670933
H   76.298843   41.642857    8.575779
H   95.344368   98.925423   87.409050
H   42.542240    3.611425   55.223000
H   54.280251   70.883453   14.735714
H    1.833875   83.713867   67.460152
H   17.261541   46.636757   90.197014
H    4.267014   51.022160   36.792698
H   75.423203   29.303499   42.950096
H    9.236653   34.231087   15.710539
H   50.755104   98.581490   17.583294
H    6.128500   81.821655   49.491608
H   16.806816   27.443306   58.142349
H   54.667801   21.336281   65.190231
H   46.170235   92.237083   26.500172
H   78.080544   66.746552   74.366501
H   35.751915   61.067081   59.786995
H   39.244263   46.459347    0.057162
H   64.380493   46.881058   39.847748
H   57.612541   77.486122   72.066315
H   23.278419   61.951878   50.590706
H   54.225212   19.070038   52.107750
H   36.997829   64.824341   91.683128
H   80.390251   54.893116   41.777447
H   54.758698   54.787350   36.417667
H   56.985535   40.255226   57.573051
H   81.785423   38.691910   50.888821
H   98.985146   10.991030   42.684338
H   98.794586   94.299446    4.208528
H   18.771542   14.324234   87.612152
H   67.126961   80.628830   82.986908
H   28.398487   99.646942   53.028969
H   55.750164   50.000584   13.396688
H   81.887451   27.373884   74.488708
H   76.904060   20.390003   71.125664
H   56.137459   35.507507   40.127953
H   64.736595   14.932700    3.808126
H   91.251472   28.479982   91.984543
H   42.256042    6.419983    1.790526
H   29.389662   76.134995   53.663437
H   44.812645   48.084610   86.745163
H   73.888222   48.758121   36.412544
H   50.904346    3.104572   91.725777
H   58.189938   39.424042   45.680832
H   56.351940   17.076895   98.947182
H   26.620031   57.946690   60.427063
H   70.078117   62.819286   36.298031
H   43.383869   66.226265   75.632721
H    7.529512   68.226089   35.741543
H   52.587105   34.225830   80.498985
H   27.900043   72.831230   24.792097
H   73.022629   43.216038   18.285048
H   96.202560   10.317593   20.899551
H   29.826464   28.750633   56.380699
H   69.165375   77.907318   59.284378
H   56.450493   27.795027   49.728302
H   19.978985   89.738571    3.682302
H   92.611496   80.586128   50.116741
H   24.130455    8.332123    0.017964
H   17.148941   63.471733   89.009689
H   87.723389   53.256050   69.938103
H   15.951785   92.561249   91.781937
H   71.908943   37.527748   70.767632
H   18.520063   21.207804   68.788223
H   34.820992   38.039307   66.929382
H   61.916634   98.390755   28.084961
H   73.069885   54.120155   97.296387
H   55.125938   52.039543   36.877171
H    0.235946   81.597763   10.885950
H   69.611252   14.086353    7.721218
H   83.821129   16.044054   77.983284
H   63.756653   31.641710   61.122906
H   75.470772   42.611824   54.154369
H   58.257698   43.926437   28.312731
H   30.971020   12.948668   30.801685
H   62.548950   47.329807   41.185555
H   96.194008   94.202072   39.401192
H   52.114460   51.079540    5.919528
H   99.412994   57.987869   10.591261
H   51.112812   42.425079   30.581120
H   95.112129   92.460304   70.978699
H   49.736343   17.089478   43.502365
H    2.795615   86.448540   88.099632
H    7.876501   50.156860   24.013319
H   89.873703   36.602921   73.836708
H   99.407661   76.857948   10.961697
H   80.051682   22.587151   99.539146
H   10.249786   87.203400   77.957718
H   34.184673   53.970959   73.668678
H   20.473026   90.765793   81.918259
H   50.877941   41.037952   68.881645
H   20.162781   60.998367   64.503258
H   67.951141   12.528502   58.619675
H   95.358932   88.597038   16.014053
H   14.601323   34.177521   22.323200
H    8.340723   45.932743   68.556259
H   70.093155   24.582817   94.751251
