100
TIME:    7.607, STEP:  7607
H    2.892226   24.422565   92.181595
H   90.390366   17.075367   57.752064
H   10.528315   21.181816   34.045498
H   82.753418   19.242195   23.196716
H   27.033728   82.491936   59.448044
H   10.052447   92.966866   32.092491
H   54.286144   74.999405   85.330460
H   21.991096   46.703541    9.743722
H   66.633293   54.911377   21.252937
H   66.985542   25.610247    5.563014
H   92.670425   72.326782    7.005121
H   65.505402    4.990283   51.454247
H   58.676598    1.544861   69.143257
H   78.428230   81.628975   36.136402
H   73.000618   90.538101   85.081329
H   95.661575   46.393005    1.593099
H   12.397474   85.114731   65.883575
H   63.740108   24.682205   35.829483
H   63.742420   97.474731   64.126328
H   87.571548   44.269093   34.252510
H   12.866547   98.915710   50.774784
H   91.670837   54.182388   71.471970
H   84.177788   32.754982   14.704629
H   12.257586   27.830050   42.111946
H   57.514107   82.887024   92.719337
H   11.739697    1.848852   75.030540
H    6.118422   26.262415   50.904743
H   90.685326   11.508735   18.218859
H   76.577614   39.258259   97.585869
H   92.679901    2.566004   88.123589
H   15.438203    4.190542    7.537382
H   46.067837   42.337116   95.045998
H    6.183243   11.918230   83.095589
H   99.515038   76.586586   51.280075
H   91.638329   83.713402   87.867645
H   33.900822   81.241501   95.510719
H    9.409627   25.951151    7.867169
H   49.580078   19.739353   59.245041
H   23.977718   15.673445    7.137782
H   46.698784    0.040915   36.537315
H   15.367079   17.198378   21.562101
H   59.137428   71.434006   68.309502
H   76.753082    9.120008   50.934368
H   93.611603   40.325645   24.507820
H   96.805168   31.758938    7.061295
H   79.931999    8.007464   14.065538
H    1.165059   38.533211   98.483162
H   56.651913   73.719620   39.255581
H   87.390938    2.439188   41.027939
H   85.450439   46.516842   51.651520
H   42.979259   35.237152   33.615067
H   74.828644   57.866375   74.684570
H   66.665459   66.116699   61.067757
H    0.534515   83.089111   67.492264
H   35.114700   25.245747   65.051407
H    3.070268    4.531898   33.666565
H   78.502151   70.049614   79.476402
H   59.622726   58.500175   17.616018
H   90.221184   60.191792   27.496655
H   57.034111   12.486829   47.249413
H   39.556408   24.811275   21.294815
H   28.930641   57.137192   51.162582
H   90.499748   88.194733   11.835632
H   65.400139   83.201614   20.608303
H   34.257195   53.286541    3.975418
H   34.037262   64.106834   95.969055
H   77.244476   11.356915   34.328899
H   54.898262   52.590080   29.861191
H   36.034203    3.195822   83.135101
H   84.518974   30.724367   85.709274
H   80.475502   77.821762   70.900673
H   46.849133   99.016991   13.636661
H   11.000235   42.038830   66.708801
H   62.745045   67.971252   51.171173
H   28.907457   39.516094   78.069595
H    5.489106   95.109886   84.074562
H   57.660847   67.396309   25.652281
H   89.371017   53.318432   34.545940
H   26.296789   31.174564    2.550457
H   26.470356   94.629662   65.571358
H   59.734581    7.980264   34.642899
H   12.120158   93.803162   50.602108
H   99.033943   34.334019   54.396080
H   73.497978   63.106686   68.634453
H   81.932251   73.056541   10.339616
H   76.217514   88.472000   70.036346
H   75.209114   50.261604   86.274406
H   78.370506   96.354004   16.705177
H   13.550324   70.626717   65.975349
H   93.777496   96.301895   96.149704
H   35.332508   84.187431   94.107712
H   41.139866   67.598480   78.469002
H   73.076889   55.768314    7.265567
H   82.453041   74.680748   39.727062
H   25.072071   68.341751   90.887817
H   22.228638   95.340454   74.537407
H   58.794365    4.229948   99.702827
H   23.594049   62.852024   26.171316
H   46.333031   69.651070    7.870625
H   11.712097   83.425369   64.934799
