100
TIME:    9.825, STEP:  9825
H   52.897125   21.022469   90.150955
H   29.133133   37.266811   97.602104
H   48.653576   80.754005    8.009043
H   83.125702   27.861242    1.620044
H    7.158842   60.274063   99.310661
H   75.663208   90.563942   51.748955
H   38.041813   24.769037   58.780972
H   47.660675   38.589001    6.094200
H   12.110619   41.658325   81.639168
H    6.401217   57.457447   92.409218
H   86.357391   61.571274   93.353218
H   80.848778   16.166733   93.575249
H   17.242157   67.293465   48.725998
H   68.606323   74.792488    4.926060
H   99.940437   92.415405   78.415062
H    6.480265   52.398544   17.479862
H   34.039040   31.818123   67.796860
H   11.169044   16.754189   58.942108
H   98.297012   90.523331   80.988373
H   27.813305   97.168427   85.264305
H   81.246796   78.108650   90.574997
H    4.312668   57.126816   82.588791
H   54.564293   14.723942   51.246155
H    6.173328   54.363739   77.384979
H   78.186386    6.988136    9.095325
H    1.278806   36.462509   66.306511
H   14.857868   34.062878   94.906967
H    3.537210   15.037496   91.533928
H   24.806438   40.492588   92.739609
H   77.727425   47.670853   64.447884
H    2.730091    3.083048   32.056366
H   86.113907   81.056503   89.714638
H   62.418571   49.638382   82.910545
H   93.231232   73.320091   57.839561
H   36.438774   15.779579   22.813711
H   26.707479   54.971241   88.538857
H   22.144672   44.722908   82.636978
H   57.904728   79.153740   15.764602
H   30.355389   67.346947   92.197289
H   37.788349   92.398880   11.044801
H   63.782257   93.303116   73.817223
H   72.216194   80.135727   81.536125
H   95.841095   22.426971   11.143246
H   51.992741   77.561501   41.369175
H    4.391018   44.231205   96.854568
H   51.307487   50.307659   23.076502
H   18.505894   59.159290   19.782038
H   56.787289   96.564316   76.492508
H   52.222649   18.744198   52.552040
H   32.009590   80.284386   96.568550
H   45.989201   21.340767   52.141541
H   82.623810   52.052544   29.086050
H   12.662868   78.977417   32.251350
H   49.164406   46.901886   65.366341
H   58.513863   19.620596   83.902512
H    5.832785    2.198777   58.160599
H   19.114853    6.050028   90.426628
H   94.466507   49.037254   60.485863
H   65.157829   53.913521   57.220707
H   10.670984   82.970413   84.164223
H   79.472809   21.663568   48.368534
H   50.209465   36.492355   50.806343
H   41.099232   36.874039   59.755234
H   17.704865   95.283920   60.393883
H   22.293316   76.136909   10.527812
H   97.784912   53.843712   27.115534
H   99.289803   88.037811   41.413708
H    1.685671   79.439400   35.894424
H   46.579605   43.824493   44.026531
H   29.565613   42.127949   81.004959
H   10.035465   26.903210   44.299294
H   64.201103   25.372459   76.213531
H   66.384048   32.325649    9.834644
H   13.925083   27.596386   19.385401
H   35.750175   42.782040   46.239643
H   57.929626   37.263050   34.831665
H   59.102486   75.422043   64.994133
H   93.568398    8.296913   57.049385
H   32.657791   24.659595   27.305040
H   17.698433   73.804787   74.488747
H    3.156137   30.926493   67.210304
H   78.555382    8.195313   65.043175
H   39.326294   71.427040   65.627304
H   26.093769   52.905960   66.054497
H   73.936066   34.307137   95.330826
H   25.167896   69.944466   24.061192
H   23.344454   88.994301   92.037010
H   14.040794   18.871176   93.712753
H   59.581547   47.131660   47.834969
H   97.676453    5.047554   75.435287
H   26.102804    3.952375   40.948143
H    5.249406   34.412933   20.732157
H   15.254802   22.313322   78.786919
H   93.648354    9.004296   94.141991
H   86.721710   69.666756   41.852882
H    5.426330    7.754149   59.974899
H   82.740227   31.514191   72.143219
H   19.312784   72.600388   81.637596
H   40.672569   79.228920   22.090611
H   49.479126   26.510105   51.267101
