100
TIME:    5.013, STEP:  5013
H   78.313881   62.303688   94.556473
H   62.028297   76.511612   94.191101
H   65.924423   34.558762   64.502983
H   82.318024   26.115292   65.385017
H   50.270065   74.571564   29.780891
H   50.286106   95.777138   75.200890
H   90.239067   99.838379   82.476135
H   25.874382   22.290440   47.917416
H   30.398827    4.313824   84.536629
H   37.847359   88.362617    3.991710
H   33.957977   67.951508   56.871265
H   64.510994   74.966499   36.097740
H   24.177109   58.444420   26.905029
H    6.867377   89.624397   38.731941
H   41.477074   22.245993    9.801271
H   99.961197   73.273697   16.918190
H   20.991615   13.542481   29.741514
H    8.267610   50.901478   25.749174
H   23.347584   88.654282   27.466547
H   57.455856   99.359169   57.640968
H   66.798195   57.158134   21.183201
H   42.981537   50.738815   92.375046
H   18.813255   53.851814   88.921783
H   53.278599   96.798309   34.763870
H   50.290070   88.603363   73.561989
H   23.694239   78.461105   19.018526
H   29.801916   34.092182   99.430641
H    9.559842   90.429611   32.475464
H   20.174263    3.910844   20.204819
H   93.214539   66.767906   81.907936
H   13.347688   71.580261   12.766335
H   82.281166   14.009681   35.185509
H   23.465912    1.707867   49.407585
H   89.912247   14.311101   60.561287
H   56.161926   79.975662   29.984932
H    8.409471   78.068184    3.666407
H   60.610100   20.949028    3.470192
H   56.793896   67.215782   76.194420
H   33.472294   72.192680   58.515244
H   91.024910   42.883171   32.446423
H   92.649109   28.191641   60.449810
H   81.080589   36.843819   38.313381
H   54.420742   93.561417   63.566887
H   59.245380   96.785828   70.880051
H   21.815435   34.104080   85.086205
H   13.412767   58.532124    3.526222
H   80.898727   97.461205   73.586525
H   56.507137   47.002243   78.753975
H   11.566856   17.273502   44.504021
H   31.015354    7.032415   33.048279
H   43.162159   85.670441    6.271941
H   48.754478   98.570053   44.968460
H   12.855952   51.075806   11.721308
H   60.599136   25.411545   53.025902
H   41.652802   97.919441   42.985775
H   99.838608    7.260533   21.972458
H   14.055034   44.898842   32.765556
H   52.776993    3.471382   84.431381
H   85.641426   50.580856   26.631920
H   28.212681   13.103345   21.028938
H   75.924408   45.443745   23.543274
H   20.994646   81.281784   68.533554
H   14.392488   65.205002   89.713989
H   87.273415   69.071091   91.035629
H   31.296316   60.465115   62.407963
H   93.389610   93.062096   42.591011
H   85.365845   21.675560    9.089451
H   34.083687    4.235550    5.852988
H    6.748231   89.584129   45.826675
H   31.950010    0.280787   91.177185
H   62.847267   54.315659    2.012089
H   60.621376   85.153122   23.649780
H   80.134140   70.341499   33.215195
H   19.853626   32.146526    5.298560
H    3.869010   35.786732   81.417206
H   44.169800   28.858610   58.617085
H   22.102510   92.052681   79.705956
H   67.500183   22.932220   91.288506
H    1.905848   38.793964   73.615181
H   53.678223   35.934643   89.046875
H    8.968582   81.143448   79.604393
H   17.456429   76.966263   67.593529
H   34.958359   90.954407    7.355960
H   95.036545   41.132614    5.557531
H    8.237332   35.318970   61.798271
H   35.917690   93.189842   89.901031
H    1.961660   38.866989   62.582718
H   36.646973    3.942051   43.610397
H   59.717636   15.056648   87.190926
H   23.121809    3.025513    3.421152
H   29.175316   44.118916   39.327190
H   49.210133   72.504883   29.045958
H    6.796476   77.937355    6.667561
H   31.753304   17.307764   64.818047
H   69.919212    0.694777   31.278503
H    7.974883   97.774384    8.521002
H   64.693962   55.366421   48.886871
H   25.266310   58.920380   75.815605
H   69.905365   58.459370   25.145576
H   50.586773   49.990719   14.822049
