100
TIME:    8.912, STEP:  8912
H   14.640094    4.748821   90.986832
H   54.348343   87.792038   40.035175
H   32.959995   15.068942   18.726974
H   82.972458   65.476067   51.666443
H   15.339983   87.093353   24.064259
H   89.817383   91.553062   61.332008
H   85.891960   63.120285   87.383171
H   19.420670   59.602177   89.923286
H   34.553902   29.440205   39.108570
H   31.341681   44.348118   56.661568
H   71.282501   24.835182   81.300163
H   15.694031   70.403145   58.563026
H   75.460953   22.556480   39.457344
H   13.812772   77.606606   35.447460
H   88.851143   73.969063   22.323051
H   43.191559   32.252953   93.266663
H    7.456964   71.429344   84.682869
H   91.641312   61.181023   90.592850
H   84.073181   52.224117   32.880299
H   52.408970   16.557768   23.102961
H   35.426003   69.000275   15.357672
H   16.782465   55.914795   60.339157
H   66.754158   22.146128   77.367294
H   91.004547   43.441620   45.191807
H   10.840674   79.394455    2.355965
H    5.585587   63.377731   52.223682
H   93.587090   72.017166   76.796310
H   80.572693   72.421738   61.358177
H    4.953538   57.658260   35.896263
H   42.718132   70.267380   91.867401
H   66.800941   21.212307    4.290001
H   28.466297    6.284525   74.235603
H   98.105484   16.438076    0.660294
H   54.655533   56.991058   96.303810
H   59.160683   84.906563   67.267273
H   47.342182   83.458191   91.408699
H   34.575981   78.157967   10.696012
H   95.643425   95.857338   51.335419
H   68.895378   87.240807   80.673569
H   23.782999   77.872139   39.212212
H   26.179083   61.972130   52.307339
H   49.159119   76.551575   34.934513
H   87.983856   16.948498   45.195461
H   10.283772   62.236298   52.101704
H   83.605591   80.278374   18.735407
H   63.086380   32.893566   19.367300
H   11.367246    9.502840   11.014793
H   56.731564   87.160706   20.001194
H   25.537292   94.358986   88.970581
H   12.846834   66.380974   60.406826
H   42.889652    9.247215   47.374756
H   38.252697   36.771381   89.018562
H   93.726845   73.683533   85.277847
H   70.307190   61.801384   25.077694
H   31.208649   39.609970   76.142792
H    4.695644    3.159164   89.241272
H   61.232590   32.394661    3.592746
H   62.449890   35.259132   84.001854
H   93.148552   15.332360   27.310980
H   70.917732   12.793500   10.132103
H   21.876440   64.119995   19.546871
H   82.613609   44.990433   92.114799
H   79.096924   99.143700   22.347870
H   55.011822   90.310455   85.178635
H   86.055893   49.057804   25.504683
H   53.870613   99.231804   73.131355
H   72.541946   56.471203   97.332748
H   64.752945   27.224667   92.247742
H    1.073560    9.426842    1.286624
H   11.023086   96.271988   82.941406
H   39.031132   89.026924   55.249275
H   39.385674   55.686913    9.292377
H   25.912735   77.485954   33.246151
H   34.020947   85.379189   73.632973
H   91.771667   41.437672   77.015518
H   36.343117   78.749138   96.265274
H   76.182449   54.444958   48.799454
H   50.676167   67.992424    6.625113
H   88.876472   27.341366   17.114313
H   62.472435   23.540659   53.144432
H   85.282600   21.481089   12.641395
H   10.045893    2.268398   41.425957
H   81.578239   56.158360   78.677177
H   63.279182   74.778297   49.443226
H   18.390762   91.421738   83.835266
H   46.183224   36.406158   60.659546
H   62.367176   55.377159   48.501778
H   99.358513   91.927406    3.174333
H   40.635014   97.966881   55.302132
H   78.398727   42.613235   42.798836
H   88.738426   54.651363   21.667259
H   37.696651   65.746979    3.338743
H   56.729862   94.918816    8.183223
H    8.575926   53.853626   27.720224
H    2.506285   51.447643   20.874231
H   30.016281   43.806335    7.132523
H   55.209557   79.120232   24.651299
H   21.075090   27.426556   99.971153
H   84.166008   75.286369   98.563194
H   92.770493   49.936359   39.219059
