100
TIME:    6.108, STEP:  6108
H    4.263601   61.887444   93.553970
H   31.786171   35.847668   63.235905
H   84.754761   13.338061   51.646214
H   82.501816   81.000275    5.361857
H   40.462250   62.340561    0.093224
H   33.302044   94.590843   83.642235
H   32.850338   73.779823   68.106636
H   39.809540   17.022030   47.378094
H    3.481626   99.033981   15.609700
H    7.929171    4.085501   46.870640
H   32.103745   12.011074   51.395554
H   22.715096   29.852909   58.154808
H   54.302719   92.227104   18.100029
H   52.648994   86.249306   22.061321
H   54.793648   24.436180   57.167767
H   55.934631   77.500954   26.023865
H   32.938179   85.967537   29.423681
H   31.683706   97.623962   87.790565
H   40.400600   34.591713   85.155273
H   27.957222   76.101112   32.193626
H    1.819345   48.147160   91.461998
H   47.960251   52.192444   99.125687
H    4.192013   44.946251   57.593582
H   51.537205    9.897676   53.440884
H   11.127608    1.763954   81.648842
H   18.702612   46.092361   16.048897
H   35.379028   88.574661   21.158506
H   17.166752   41.540489   68.673080
H   43.983696    3.257824   68.443756
H   35.200245   39.666924   68.957108
H   56.445259   69.770958   26.133415
H   51.420048   83.753998   33.815880
H    0.595740   21.591829   48.053833
H   36.179909   13.960881   14.431059
H   28.943516   97.201149   96.662659
H    3.595927   63.833534    0.222652
H   65.634773   80.846802   89.751930
H   11.538605   47.175426   53.465199
H   87.251465   48.333122   52.401558
H   87.888031   40.372852   18.598768
H   17.813095   65.760811   86.247536
H   85.464935   65.555664   91.783989
H   63.852619    0.127853   42.661148
H   89.327530   15.165426   77.943321
H   26.832333   90.902084   78.788193
H   99.282494   79.417587    7.975623
H   89.453415   57.011978   84.096092
H   56.565617   58.280396   46.506336
H   43.571747   26.585419    0.822272
H   53.981014   23.699018   56.461441
H   43.082188   79.955353   17.815010
H    1.970499   96.962402   73.083900
H   35.570698   57.424988   48.126354
H   35.244179    7.542928    1.346412
H   54.467064   93.880569   52.300694
H    1.203266    6.108700   84.696060
H   83.472374   13.303128   36.909157
H   71.241364    0.061934   56.227646
H   72.001007   96.846519   42.570885
H   55.952698   97.268478   89.884544
H   44.998280   94.522110   38.167927
H   82.133064   71.089676   18.985634
H   88.732628   90.483803   14.626556
H   62.466370   75.035980   61.310673
H   74.761017   73.009140   64.380486
H   26.122063   38.626213    7.336191
H   97.511765   59.529522   61.956558
H   58.444435   66.860329   58.200321
H   61.325802   10.904396   77.150146
H   54.130386   55.357994   88.871429
H   28.076668   79.812576   88.878792
H   70.333755   48.812408    3.820551
H    8.737896   16.180328    5.136772
H   95.750237   62.842388   40.236412
H   56.660946   37.348965   64.425919
H   70.057472   99.037773   84.938354
H   21.521412   97.144875   99.070961
H   18.945278   51.333931   51.762810
H   54.412373   35.577602   85.829002
H   99.983505   76.287819   94.711601
H   30.396387   92.471725   45.049534
H   99.635330   84.082031   76.006706
H    4.218518    9.266063   11.637997
H   70.369286   34.834251    5.546289
H   54.920464   66.827492   55.650269
H   10.713108   33.410515   65.941254
H   75.094231   59.251427   14.796515
H   54.262444   16.304976   32.247330
H   82.441025   54.088341   78.235237
H   26.309156   57.978054   42.563019
H   73.987175    3.246782   62.451580
H   30.229044   54.859146   49.906364
H   76.988098   10.788709   91.345596
H   37.582050   83.738472   38.652008
H   50.988625    2.611397   56.441196
H   98.417313   54.533112   51.962845
H   77.778160   18.205935   85.912476
H   26.487474   88.682480   56.261757
H   17.741821   63.179485   33.428253
H   18.603098   21.894085    9.337005
