100
TIME:    6.098, STEP:  6098
H    4.939852   62.804497   93.563126
H   32.062325   35.305752   62.605335
H   84.582794   12.618648   51.763630
H   82.500137   81.412262    5.910010
H   40.551819   61.539017    0.364350
H   33.457150   94.601677   82.651939
H   33.374401   73.104622   67.324623
H   40.595520   16.156933   48.296291
H    3.727450   99.995438   16.239176
H    8.202341    3.941906   46.479099
H   33.033920   11.608719   52.358765
H   23.096794   29.351658   58.866631
H   54.940842   92.831810   19.093681
H   53.144142   86.280128   21.300289
H   54.672035   25.329403   57.648495
H   56.336700   78.375587   26.853981
H   33.742317   85.306068   28.513342
H   31.469854   98.110565   88.137245
H   40.244884   34.172173   84.628387
H   28.226616   76.313515   31.512781
H    2.412755   49.142719   91.733452
H   47.001541   52.179169   99.977280
H    4.325537   45.027580   57.879684
H   52.466389    9.778048   54.183605
H   11.485255    2.557030   81.574989
H   18.748198   46.388000   16.989258
H   36.241379   88.990311   20.960066
H   18.010525   41.073723   68.342575
H   43.766258    2.350561   68.916473
H   34.816792   39.914421   68.162125
H   56.051659   68.874199   26.924583
H   50.788639   84.030334   34.741631
H   99.891350   22.323450   47.152954
H   35.757393   14.877305   14.852316
H   29.192120   97.957069   96.053833
H    2.726662   63.050301    0.254101
H   64.675606   81.213013   88.963966
H   11.951908   47.358456   52.759556
H   87.673523   48.551018   53.370644
H   88.829956   41.309055   17.811987
H   18.496498   65.417641   86.011940
H   86.307678   65.516449   91.273430
H   63.766483    0.067865   41.938873
H   89.966110   14.997580   76.965538
H   27.699757   91.296677   77.932480
H   99.411583   79.226852    7.934996
H   89.375290   56.468155   84.000114
H   56.565083   58.177399   45.887592
H   43.279465   27.413589    1.221189
H   53.771282   23.546812   57.160828
H   43.082874   80.920776   17.709610
H    1.484545   97.890289   73.740334
H   35.363255   57.367004   48.707180
H   35.475731    7.706101    0.905163
H   55.263268   93.004257   52.215626
H    1.190811    6.119219   85.036484
H   82.838371   13.591691   35.958076
H   71.985992    1.006330   56.485214
H   71.212280   96.424004   43.338554
H   56.612564   96.499893   90.168968
H   44.367481   94.987198   38.947575
H   82.487984   71.182755   19.438133
H   88.053764   91.166176   15.312286
H   61.779648   74.981506   61.582203
H   74.364136   73.807785   63.449238
H   26.736343   39.123344    6.744894
H   98.314072   59.183834   61.473770
H   59.135201   66.288429   57.722263
H   60.827374   11.622932   77.777283
H   53.927826   54.854988   88.892487
H   28.394241   80.492966   88.998726
H   71.158340   49.144287    3.088391
H    9.389942   16.674942    5.393196
H   95.970421   63.475246   40.830589
H   56.178844   37.334698   63.667862
H   69.821114   98.396904   85.611267
H   20.613476   98.011574   98.894112
H   18.475460   51.987846   51.210518
H   53.932865   35.606976   85.717461
H    0.473894   76.832558   95.573112
H   30.200693   92.368271   44.451847
H   98.884750   84.017181   76.843193
H    3.585974    9.098845   10.685638
H   69.681267   33.978539    6.459614
H   55.407372   67.452950   56.619659
H   10.943287   33.043159   65.246826
H   74.426353   59.978508   14.319677
H   54.101616   17.105185   32.351013
H   82.233505   54.645134   78.317024
H   27.193289   58.389507   42.205582
H   73.577934    2.706816   62.240398
H   29.489145   54.107040   49.715858
H   76.347076   10.488645   90.572281
H   36.615635   83.131783   37.977722
H   51.161507    3.507155   56.211399
H   97.591354   54.928009   52.479355
H   78.571922   17.632090   86.487579
H   26.506777   88.187637   56.462486
H   18.218201   63.136379   34.265884
H   17.981989   22.150700   10.300349
