100
TIME:    4.126, STEP:  4126
H   38.297272   43.646057   95.368546
H   86.525826   28.445436   38.263245
H   50.676903   70.745049   74.911049
H   82.169144   62.659111   14.002461
H   58.214844    3.474597   53.831467
H   64.043953   96.738091   87.357689
H   36.726772   39.945293   13.111581
H   95.590828   45.552868   29.358227
H   52.202980   89.595230   40.370068
H   62.087730   75.626610   69.261353
H   16.464554   32.260914   42.312183
H   98.360893   30.505518   99.236397
H   80.778580   12.082581   15.042068
H   50.785393   92.358376   71.231308
H   30.689629    1.476757   52.440342
H   35.627625   50.854057   90.546814
H   92.318672   54.872471   48.994408
H   89.307091   94.053123   56.500973
H    9.532196   51.445534   80.735626
H   81.356010   18.195971   97.249931
H   19.434021   45.461468   45.255913
H   57.943985   49.561310   67.911270
H   30.655983   61.065727   14.300014
H   35.691414   86.166565    0.639570
H   82.015045   58.948074   67.011269
H   27.737684    4.678598    2.428694
H    6.288862   70.965775   81.835732
H   84.401825   49.027435    3.153612
H    0.886276   23.434895   62.133888
H   59.202225   88.720940   11.393940
H   78.440193   92.042152   82.942955
H   26.275221   38.514114   17.299538
H   60.988422   66.604515   69.499619
H   52.435089   95.599548   97.930168
H   78.209702   47.026207   75.972305
H   31.303366    8.595175    6.456998
H   75.535568   53.433090   33.577869
H   93.457649   83.443703   13.602531
H   70.914368   91.520012   44.471947
H   74.569756   25.920712   62.660572
H   53.268661   97.758530   39.552471
H   60.799759   97.034241   96.644821
H   46.780491   88.242340   99.499687
H   15.886034   81.918488   84.152954
H   98.756065   69.098633    9.183452
H   24.856609   41.613941   99.920570
H   73.969040   49.224083   65.073296
H   56.459766   37.866425   23.871391
H   85.637436   90.734711   79.887054
H   12.412120   93.534950   95.087257
H   43.229832   71.304756   96.920700
H    5.649019   80.877655    3.196632
H   94.458687   45.932678   63.239223
H   81.143456   39.886742   13.885562
H   12.275862   20.180819   35.440266
H   98.728775    8.193747   52.168030
H   57.821011   70.492668   48.404427
H   18.825188   87.237633    7.278311
H   15.686033   13.102125   94.727669
H   86.745453   44.926723   46.257332
H   19.971869   86.693993   92.700844
H   52.474815   89.537857    8.664716
H   54.175358   25.732491   50.538261
H   26.364092   64.239258   15.117832
H   96.089775   31.306854   79.805321
H   47.878365   37.157051   90.145126
H   56.531937   91.009338   66.265549
H   95.354576   53.507828   63.449261
H   62.543312   53.318283    1.456018
H   13.979517   55.669632   93.044952
H   91.012657   14.666615   12.653229
H   33.759804   14.591380   58.709217
H   37.969040   14.218304   55.959999
H   39.381710   88.278130   58.000999
H   61.100689   34.521252   14.176681
H   23.198023   72.011681   18.302410
H   41.569084   68.933151   64.019417
H   25.827312   80.932014   42.303986
H   59.367752   41.399364   63.721237
H   97.178253   84.243370   65.462639
H   91.614304   71.967026   26.589926
H   50.904343   71.173477   41.764282
H   78.849495   76.128479   22.881115
H   34.012604   65.229805   86.570633
H   51.427628   90.800575   47.782944
H   56.334553   60.611488   28.305313
H   42.720940    3.359119   20.287260
H   22.370310   74.956764   52.834190
H   41.310654   64.443077   94.445442
H    1.544209   39.521416   71.710175
H   92.875488   96.224236   20.595377
H   83.578644    5.797882   12.145706
H   49.938057   51.318512   38.074444
H   46.021816   63.506699    5.014075
H   85.253853   80.147881   10.898437
H   34.712296   32.799324   54.335716
H   35.099518    4.463377   99.898575
H   22.011251   51.368103   90.013344
H   12.160057   54.635860   99.440239
H   95.493477   72.751656    0.268894
