100
TIME:    5.901, STEP:  5901
H   18.261923   80.870445   93.743484
H   37.503151   24.630011   50.183117
H   81.195053   98.446091   54.076733
H   82.467072   89.528412   16.708599
H   42.316330   45.748596    5.705551
H   36.512730   94.815102   63.143055
H   43.698444   59.802677   51.918964
H   56.079330   99.114151   66.384590
H    8.570091   18.936432   28.639601
H   13.583799    1.113075   38.765751
H   51.358383    3.682223   71.334602
H   30.616257   19.477009   72.889534
H   67.511856    4.744823   38.668633
H   62.898552   86.887337    6.307957
H   52.276268   42.926132   67.118347
H   64.257462   95.605873   43.206757
H   49.583839   72.275139   10.579657
H   27.256971    7.696018   94.966835
H   37.177280   25.907228   74.248734
H   33.533676   80.497841   18.100092
H   14.103004   68.754883   97.081093
H   28.114960   51.917648   16.753586
H    6.955959   46.629768   63.515900
H   70.770760    7.421359   68.814728
H   18.530766   18.180618   80.120094
H   19.646235   52.212090   35.514229
H   53.229683   97.178604   17.050787
H   34.632732   31.878426   61.831116
H   39.482735   84.477051   78.229004
H   27.263233   44.790123   52.500961
H   48.297729   51.209133   42.510597
H   38.349888   89.474167   52.978920
H   86.015739   36.736626   29.405638
H   27.433418   32.931206   23.151079
H   34.089294   12.849043   84.057938
H   85.601669   47.620598    0.873638
H   45.781456   88.427368   73.441078
H   20.094173   50.964130   38.858395
H   95.988068   52.843559   72.461632
H    7.385557   59.752254    2.312395
H   31.959538   58.658379   81.370705
H    2.909770   64.743912   81.215416
H   62.069607   98.886490   27.709835
H    2.545891   11.691000   57.703697
H   44.787449   99.070145   61.074932
H    1.953957   75.469376    7.134654
H   87.836227   45.754837   82.109352
H   56.554562   56.148361   33.698338
H   37.521507   43.728554    9.079919
H   49.639561   20.548346   70.939499
H   43.096401   99.939621   15.633162
H   91.910606   16.170410   86.672066
H   31.276623   56.224731   60.149448
H   40.037308   10.920623   92.211937
H   70.948479   75.740906   50.539791
H    0.945442    6.326444   91.742828
H   70.348518   19.276161   17.221794
H   86.655182   19.611032   61.559311
H   55.675171   88.100441   58.461647
H   69.612579   81.358765   95.772118
H   31.940750    4.148916   54.306637
H   89.479897   73.016403   28.352371
H   74.680153    4.609062   28.821167
H   48.251228   73.908371   66.930527
H   66.545578   89.541092   45.103733
H   38.838097   48.916832   95.096504
H   14.120121   52.373783   51.962845
H   72.743279   55.022007   48.304523
H   51.008335   25.778099   90.131866
H   49.937386   44.945770   89.307312
H   34.650124   93.896637   91.361427
H   87.402664   55.682297   88.665512
H   22.235252   26.418831   10.444748
H    0.307953   75.943993   52.535881
H   46.681446   37.053638   48.734146
H   65.164848   85.771782   98.867645
H    2.727085   15.086229   95.410179
H    9.220042   64.869881   40.330368
H   44.486568   36.185627   83.520088
H   10.134624   87.563911   12.544675
H   26.345522   90.330215   32.677418
H   84.098328   82.739639   93.321983
H   91.125801    5.804541   91.924652
H   56.128166   17.120331   24.452099
H   64.999458   79.774467   75.716660
H   15.477810   25.806904   51.566605
H   61.269173   74.302010    4.925924
H   50.933311   32.869343   34.393578
H   78.145370   65.613960   79.928230
H   44.611240   66.494675   35.164070
H   65.515892   92.068863   58.080120
H   14.913141   39.290558   45.962891
H   63.718948    4.577383   75.337967
H   17.576683   71.180000   24.694292
H   54.567284   21.153721   51.684391
H   81.319977   62.707489   62.654602
H   94.209038    6.327023   97.817123
H   26.887033   78.439240   60.416855
H   27.602875   62.287189   50.767220
H    5.745827   27.206009   29.278500
