100
TIME:    3.021, STEP:  3021
H   13.024578   44.980186   96.380203
H   17.235710   68.540009   68.563766
H   31.683027   91.247284   87.877129
H   81.983673    8.184462   74.572815
H   68.112228   14.903974   83.793396
H   81.174690   97.935219   77.926048
H   94.640205   65.331367   26.699074
H   82.441650   49.956181   30.815746
H   79.365990   95.836456    9.925299
H   92.285713   59.760445   25.988718
H   19.248962   87.799164   48.751102
H   40.538231   75.117859   77.891151
H   51.095825   78.932602   24.866402
H    5.499009   95.764290   87.139305
H   17.247227    0.179755    5.554789
H   80.056259   47.501434   82.271828
H   81.176247   81.786087   48.401897
H   65.701744   47.789482   94.810730
H   92.319954    5.086388   22.520731
H   11.129311   41.660480   22.016321
H   85.006302   55.468002   75.246292
H   52.006561   48.094406   62.012222
H   45.409325   70.052620   45.916565
H   38.357895   72.913849   82.708061
H   21.535656   46.579468   58.850899
H   32.806896   37.593525    6.013422
H    1.574203   16.897173   59.914913
H   77.638237   97.449791   66.632225
H   76.859344   23.180655   14.368116
H   16.832138   16.070633   23.549202
H   34.950138   92.954697   70.367043
H   56.504951   69.042274   19.594933
H   83.152924   47.451256   69.952492
H    5.745179   96.866219   44.480530
H    5.676801   30.555817    8.687134
H   35.218899   21.799829   10.255231
H   69.551460   93.899399   46.508236
H   39.127495    3.661363   35.624859
H   17.554375   15.594732   51.554718
H   78.648560   29.367090   75.720924
H   28.787409   59.839153   13.519349
H   60.110893   47.443336   44.729919
H   37.262478   81.615982   19.683922
H   86.448196   63.404877   76.110802
H   94.606407   12.699200   14.625991
H   39.112553   20.537739   95.435555
H   65.336227   89.129486   54.460175
H   56.400753   26.487318   55.500282
H   53.334618   82.250175   23.964621
H   89.240654   76.724571   72.371002
H   43.314137   77.985306   85.269775
H   51.947300   83.413193   75.739494
H   71.544640   39.525513   27.413975
H    6.736179   57.919540   65.124847
H    0.256269   23.336731   26.042952
H   97.346176    9.357025   89.784836
H   87.770195    2.376865   43.309746
H    1.106659   91.591171   35.742630
H   28.536659   66.413361   79.559944
H   59.662674   59.993206   77.686165
H   50.267921   38.081348   78.854477
H   91.693413   99.823044   58.665588
H   79.156624    1.135098   26.311447
H   50.486710   58.227989   45.121914
H   52.232151   19.561443   76.901558
H   15.760208   92.090065   24.809364
H   45.188332   52.804867   12.915954
H   71.684593   90.310913   10.623870
H    7.467296   32.716530   70.761757
H   91.590881    0.089429   95.371765
H   26.102493   89.850578   25.910160
H   24.872190   51.264053   77.805847
H   10.016428   68.873863   84.288811
H   63.710125   58.205750   23.661537
H    7.826887   32.944752   30.410721
H   97.073952    1.189896   92.654846
H   41.242237   64.707657   44.477558
H   73.912399   53.185665   81.278778
H    6.381827   44.645100   51.387444
H   51.369850   44.424152   60.659348
H   69.998550   60.535290   60.546757
H   67.994202   63.956985   34.163795
H    8.937521   57.682587   17.635075
H   57.989193   70.672455   87.495270
H    5.231226   59.920506   54.900337
H   81.763428   20.019966   51.570660
H   68.920479   83.701607   67.596237
H    4.586210   63.425827   64.325172
H   18.377243   25.967463    3.484085
H   99.240997   84.983109   32.211723
H   47.654388   36.557171   97.259720
H    1.814620   22.702410   91.087898
H   79.106613   18.161428   52.623009
H   39.219151   96.478310   30.509544
H    4.358073   79.127106   85.506737
H   43.443817   76.435493   11.410490
H   22.809509   41.049450   63.449135
H   17.956190   41.959686    7.697763
H   64.799980   49.872639   91.995888
H   26.857065    1.111498    6.716641
