200
TIME:    0.448, STEP:   448
H   15.862649   61.784687   18.896248
H   29.818197   35.914726   98.341148
H   13.778144   78.242279   55.593315
H   24.853889   79.404915   39.060547
H   13.001754   89.000977   50.667961
H   82.851990   47.169548   59.392799
H    6.372771   55.156548   53.677364
H    7.549790   97.868317   17.689213
H   95.875618   84.387939   42.645260
H    3.539238   71.985313   87.868111
H   19.443598   99.037544   99.534668
H   31.637909   47.574661   22.653017
H   16.279278   93.910957   52.766777
H   94.572395   54.084499   52.288754
H    9.579608   73.545784   42.466812
H   23.237583   17.396236   49.836006
H   93.992325   17.460167    5.333324
H   31.622940   93.166183   39.817303
H   71.945953   22.171612   45.545784
H   90.717995   76.848228   29.407612
H   60.581291   87.141434   16.311054
H   85.398415   56.764809   62.559189
H   88.776573   61.029129   44.145363
H   13.013902   89.955544   90.933861
H   12.287257   21.069464   37.988354
H   18.488913   71.567215    0.086798
H    2.923729   62.970341   57.444901
H   99.283722   78.709877    1.278577
H   19.829151   50.207466   37.120407
H   83.650131   26.336397   91.430832
H   13.089931   60.139194   16.449116
H   28.143642   68.381332   98.724098
H   22.097542   13.461231   75.719803
H   89.542519   63.804848   41.925919
H   38.006748   81.206284   32.636936
H   26.266884   45.179459   81.861610
H   92.234436   69.939621   87.516457
H   22.626511   50.135746    5.815361
H   45.372131   38.952435   49.055107
H   88.087997   38.833141   55.571381
H   80.566200   95.507309    8.428256
H   23.692339   38.745255   33.663597
H   72.956741   83.003731   58.051792
H   36.817886   73.336189   26.187391
H   35.883820   82.641220   51.870018
H   38.132729    8.425335   44.950024
H   83.893829   16.021812    0.739686
H   85.051979   65.547432   40.170120
H   95.124435   20.858852   61.316296
H   54.673977   18.740164   96.912659
H   73.260239   67.863426   19.625507
H   13.186954   39.278057   68.013649
H   57.785995   88.470482   10.648802
H   19.310921   86.573105   84.783363
H   68.394699   71.759079   84.046425
H    2.639242   67.225914   85.459259
H    4.836879   17.532570   47.423389
H   69.681137   63.414722    1.549294
H   23.792154   78.495529   12.157201
H   38.292561   94.821205   63.149139
H   49.745872   11.318270   36.159416
H   93.674309   16.917620   50.660378
H   77.177658   29.515337   77.867584
H   29.165680   65.449089    8.311516
H   74.692001   79.179901   26.435064
H   30.580511   24.642088   36.602066
H   78.405617   18.774567   90.132484
H   96.176628   91.922829   91.389595
H   23.921076    8.664069   59.347115
H   44.039639   45.255291   50.971485
H   58.373917   80.189667   78.845062
H   26.294704   18.354517   43.308834
H   84.095352   29.259045   92.530792
H   14.641685    4.392714   66.627846
H   81.677750    4.238616   57.832565
H   58.571205   11.733274   61.518280
H   94.548431   37.693542   69.203438
H   18.851170    9.757505   40.854988
H   13.111919   38.960308   30.331646
H   65.141937   89.506912   84.397369
H   52.196102   26.586637   98.045746
H   35.782406   64.849892   81.427055
H   10.188205   15.947886   84.193901
H   17.891199   68.661110    0.630804
H   31.501297    1.523355   51.887604
H   30.527290   78.496735   23.452927
H   45.177544    3.217535    2.248179
H   73.601753   10.802847   19.287495
H   72.052078   72.563522   77.919922
H   22.402321   95.370277   52.577175
H   32.523521   36.688389   79.829315
H   82.606575   90.360413    2.906365
H   57.140614   14.516243   89.805878
H   50.700779   86.960869   74.815971
H   30.395439   54.112602   76.602745
H   60.658302   32.359749   19.281927
H   82.127129    7.084885    7.287256
H    1.176645   31.670856   50.562931
H   32.304771   67.694412   53.618370
H   70.821007    1.307314   27.301188
H   19.146391   86.177368   78.734230
H   98.306923   79.803421   64.717262
H   27.491041   29.568506   33.409481
H   31.870684   68.323517   98.422256
H   25.063013   24.739273   31.831127
H   95.657600   16.589258   34.152672
H   75.511452   32.679485   55.291214
H   63.525791   42.260521   10.698597
H   78.082573   37.464104    9.190449
H   11.048434   25.160303    6.555270
H   49.931175   94.259285    0.942194
H   94.345886   68.575867   92.880424
H   53.481430   82.688354   89.411079
H   62.519585   14.913124   69.590210
H   56.909096   90.629944   19.479599
H    5.549891   99.712349   88.317810
H   24.023060   11.371558   86.604904
H   39.715816   37.234455   29.820793
H   26.761602   65.522812   73.259628
H   76.271767   50.826229   57.101974
H   42.725471   23.141636   80.704033
H    9.314304   22.552662   54.306511
H   37.251045   13.050039   30.199469
H    1.012742   59.833794    8.756556
H   70.692497    3.802084   85.933861
H   55.342709   68.043335   21.515303
H   90.216469   50.161118   63.021805
H   70.878990   89.201317   36.759289
H   95.027412   44.954556   80.150154
H   77.826859   23.163475   70.045189
H   57.005318   77.758942   11.360195
H   73.716240   88.114365   14.232137
H   91.758553   92.714485   98.922394
H   90.721466   18.335964   52.267376
H   14.701516   97.609161   46.858902
H   56.818161    1.359902   80.617271
H   69.237076   87.094551   65.693275
H   92.992516   57.726505   79.911873
H   51.750000   47.242447   71.500893
H   43.560616   99.114037   89.677948
H   60.915142   56.951904   21.628906
H   47.662857   47.330711   51.095707
H   48.319038   60.589420   92.368500
H   48.182076   18.998434   81.571205
H   50.078915   62.868759   55.870060
H   53.561287   65.559433   19.884315
H   49.650688   95.866905   45.792576
H   36.972878   65.676140   67.631615
H   70.745819   56.107964   95.876709
H   16.092308   90.945671   82.213120
H   68.888680   64.842422   49.773945
H   42.543167    1.354437   41.634079
H   85.838470   24.061123   96.162857
H   15.408350    5.917076   70.812508
H   21.860523   59.372143   64.516472
H   69.676781   44.044651   60.460190
H   61.488506   67.121353   83.218674
H   49.003281   33.322617   14.597149
H    2.862051    0.950595   94.891121
H   61.347706   48.457001   86.223251
H   55.999100   75.959068   77.885490
H   33.838238   21.978390   33.742035
H   74.172722   25.501240   37.145565
H   18.909597   26.290073   62.299530
H   56.962608   29.146162   11.868292
H   15.497344   57.821072   61.164799
H   71.318169   94.202705   54.426716
H   23.813915   40.396126   56.613789
H   96.899254   27.493788   36.365784
H   35.965080    8.890058   88.061066
H   75.391357    8.107421   35.958618
H   38.977394   57.721367   58.096848
H   41.691803   68.516739   84.571487
H   68.664658   69.562675   79.065079
H   61.770386   93.471848   89.451271
H    7.329244   48.784386   23.486300
H   33.280964   59.418770   95.609016
H    3.573451    9.399223   67.539871
H   70.282234   16.544237   66.702103
H   76.406120   56.686302   89.319206
H   77.620331   92.643150   36.883179
H   23.423071   30.359951   77.209549
H   56.058788   89.949371   10.187332
H   56.010483   25.605312   84.842384
H   88.212784   79.312775   77.539902
H    3.614837   37.978897   84.995216
H   38.594666    0.961690    3.873921
H   80.428253   76.035103   32.804573
H    0.594848   62.100956   68.920609
H   53.395981   57.141842   68.330948
H   57.756733   24.142693   77.816109
H   45.947777   90.581787   21.975035
H    8.720656   22.472420   62.570923
H   31.469591   71.832275   37.505116
H   77.756668   44.964748   21.135895
H   75.835953   10.893837   26.716671
H   10.843879   91.231041   10.487287
H   22.864538   93.272270   41.100685
H    9.139583   12.193895   68.714577
H    5.838326   27.945820   94.859024
