100
TIME:    0.878, STEP:   878
H   57.946693   41.504189   98.342178
H   76.847054   52.349857   33.384151
H   94.849701   37.070415   13.030708
H   81.623978   96.475548   92.036858
H   87.306885   43.133095   41.898491
H   14.401413    0.258067   65.697746
H    6.955210   20.623922   59.113514
H   50.877228   64.559006   27.578857
H   32.045082    1.877187   44.820465
H   50.846199   28.990936   42.072411
H   18.585602    1.570919   55.175438
H   22.329006   67.700325   30.431536
H   87.412720    8.587183   37.862900
H   11.608313    2.370192   24.056080
H   91.180733   91.598175    8.567020
H   66.221710   34.940830   60.158676
H   53.476646   40.060532   53.294838
H   19.906586   52.003571   69.107712
H   58.936157   15.185534    9.620089
H   68.882729   87.123718   76.086967
H   12.174774   68.810455   33.413940
H   46.536243   45.258797   44.495815
H   74.021461   87.481499    7.228773
H   37.465836   47.211979   41.867157
H   98.182365   16.542500   43.040649
H   42.633121    1.448795    6.878583
H   86.368011    5.978830   17.389105
H   58.457039   97.421265   95.794876
H   30.262436   28.750750   15.668892
H   34.659008   69.109360   53.186886
H   50.639774    0.777649   39.934135
H   21.194464   28.254250   17.983192
H   32.202564    4.244021   76.894127
H   15.199725   93.259346   34.761772
H   58.947762   92.549965   78.192169
H   48.893890   53.456493   17.623259
H   64.009666   72.381691   77.648323
H   27.701691   42.884289   84.399391
H   11.248055   61.765282   57.975548
H   80.495277   29.987551    7.112890
H   75.239243   86.307747   63.029514
H   52.711540   51.264137   44.049976
H   18.803564   68.765045   64.890785
H   23.292894   27.485411   66.579353
H   80.495079   97.250565   31.240717
H   66.737968   79.709526   86.761375
H   45.350941   73.104935   35.125679
H   56.286304    4.423273   22.903563
H   90.695915   59.732254    9.449536
H   44.304256   44.113117   22.256645
H   43.477634   84.878075   62.674366
H   47.801628   82.267426   16.422279
H   27.092333   27.099670   51.877838
H   56.357800   92.878242   70.560379
H   70.863083   35.474827    7.856520
H   94.664810   11.609209   62.737610
H   51.912102   64.212654   39.492622
H   60.680847   93.971123   90.939529
H   59.521835   75.865997   44.079121
H    1.080735   95.273102   38.637169
H   15.085379   37.739891   45.939362
H   67.749207   19.773056   55.629631
H   33.786842   47.280800   73.323830
H    3.329444   46.570587    3.300711
H   67.173424   90.719597   77.328133
H   47.408333   98.625191   98.100075
H   17.125048   78.716400    9.451782
H   19.716499   67.750839    8.176078
H    0.660263   86.698853    5.164877
H   48.171791   92.303856   99.884308
H   94.151039   35.662800   51.617191
H    1.572535   22.386574   20.904249
H   49.744827   74.876045   39.235722
H   10.865924   93.817780   51.026451
H    4.504597   29.892988   67.956230
H   46.416622   63.845711   36.851482
H   46.671970   50.446892    6.570000
H   73.230362   93.310341   62.930439
H    3.636060   50.930515   27.478470
H   56.466782   61.138062   45.280640
H   28.063671   38.364971   32.464046
H    7.199730   49.961563   13.359875
H   73.349419   21.911547   13.524925
H   10.567600   87.293190   83.234474
H    9.577826   93.963959   62.640205
H   31.084377   41.305233    2.754138
H   25.794363   39.515175   65.409515
H   70.089233   34.999031   86.614296
H   73.903511   45.286156   21.016846
H   88.709732   73.156448   55.600750
H   59.953922   20.841661   52.003490
H   43.250065   61.540001   50.251625
H   41.617638   53.937363   86.839104
H   32.089836   66.491325   86.017448
H   41.412601   71.084412   36.261162
H   66.440781   61.059685   22.099312
H   92.911148   18.066816   86.694305
H   10.088870   23.713318   41.988083
H   66.886162   40.635006   71.504768
H   93.768204   56.152477   13.121851
