100
TIME:    5.549, STEP:  5549
H   42.065834   13.150361   94.065750
H   47.224831    5.554895   27.987316
H   75.141830   73.121384   58.209789
H   82.407990    4.030727   36.003189
H   45.469162   17.534243   15.249313
H   41.972446   95.196449   28.282114
H   62.145466   36.032902   24.392107
H   83.745834   68.660049   98.702461
H   17.222923   52.779694   50.797844
H   23.200518   96.058784   24.982275
H   84.100571   89.518768    5.242092
H   44.052048    1.833504   97.945686
H   89.973770   26.031811   73.645195
H   80.327751   87.972298   79.521706
H   47.995506   74.368515   84.037292
H   78.410294   26.393326   72.425507
H   77.889503   48.993176   78.535706
H   19.729383   24.823093    7.169188
H   31.696003   11.139407   55.703548
H   43.016342   87.974403   94.134377
H   34.991188    3.796174    6.635319
H   94.368378   51.450363   46.729660
H   11.656262   49.492561   73.586700
H    3.475507    3.210421   94.955841
H   31.119267   46.096878   77.520485
H   21.250849   62.618584   68.613968
H   83.582687   11.810946   10.066250
H   64.332222   15.448250   50.194641
H   31.828926   52.540531   94.868652
H   13.766907   53.502037   24.517921
H   34.442993   19.645374   70.359718
H   16.124302   99.201218   85.565346
H   61.222469   62.491020   97.694695
H   12.559672   65.189995   37.979866
H   42.838806   39.458328   62.622078
H   55.002552   20.050190    1.980666
H   12.020654    1.318112   45.704754
H   34.641857   57.406757   14.019718
H   10.846124   60.513481    6.573237
H   40.539631   92.704262   74.618919
H   56.016663   46.581474   73.077736
H   32.907982   60.901497   63.491543
H   59.037624   96.775650    2.284706
H   25.021564    5.782671   23.288073
H   75.320427   12.957875   30.953791
H    6.496299   68.755508    5.704600
H   85.086227   26.611881   78.730934
H   56.535763   52.522873   11.918555
H   27.233177   72.880981   23.121632
H   42.256992   15.190680   95.560593
H   43.121265   33.923737   11.922408
H   74.803673   48.834064    9.779556
H   23.974621   54.183716   80.592339
H   48.187943   16.664413   76.678734
H   98.974846   44.893047   47.545406
H    0.506985    6.696713    3.725754
H   48.033546   29.432899   83.743462
H   12.865783   52.853233   70.625717
H   27.914671   73.227882   85.483620
H   92.842560   54.303600    5.783821
H    9.735495   20.518181   81.751976
H    1.972874   76.292770   44.280350
H   50.782673   28.629618   52.958862
H   24.079060   71.990891   76.485703
H   52.573166   17.654339   12.323142
H   60.462120   66.415855   74.283516
H   42.362183   40.205570   34.968704
H   97.058220   34.891148   31.476889
H   33.463657   51.070580   12.208200
H   42.807259   27.240322   90.048523
H   45.827370   17.846786   95.583107
H   16.426991   67.364426   62.894890
H   45.186508   43.829231   19.470871
H    8.055836   98.223289   73.450920
H   29.711294   36.551441   22.050053
H   56.842712   63.213097   22.552523
H   70.768944   45.595982   89.185081
H   92.682434   87.885017   20.889696
H   27.607906   37.219563   79.593819
H   27.395103    6.738484   42.869873
H   19.457094   86.688614   11.640004
H   57.678558   80.456924   22.767080
H   68.862617   99.918274   58.403210
H   31.912584   86.998825   56.600780
H   82.138618    1.790761    9.839043
H   23.580105   12.877337   27.122757
H   37.759895   99.895271   88.141190
H   45.272179   61.038044   38.043236
H   70.840683   85.213081   82.807137
H   75.733032   80.975143   22.581278
H   51.110619   73.060562   50.646526
H   88.868706   12.817330   39.257080
H   41.154984   94.016701   48.117268
H   83.557106   49.824535    0.959756
H   60.652733   52.684727   43.595524
H   52.246246   76.607880   80.835754
H   22.148783   86.126549   18.061310
H   27.233290   63.484100   67.236137
H   44.371429   60.769855   80.250359
H   83.880661   36.238216   63.188900
