100
TIME:    7.913, STEP:  7913
H   82.198479   96.361504   91.901443
H   81.939133   33.657993   77.045914
H   15.788157   43.196472   30.453060
H   82.804779    6.634216    6.423514
H   24.291746    7.019105   51.150894
H    5.306800   92.635353   62.397865
H   38.249813   95.660568    9.260075
H   97.940094   73.176323   81.648598
H   59.111229   25.490555    1.991288
H   58.627693   30.003954   17.545261
H   64.207047   84.639435   77.528824
H   53.825722   20.328152   29.672604
H   39.164055   83.022339   38.734768
H   63.276711   80.685799   59.423985
H   76.717293   63.204666   70.364044
H   83.358261   19.629211   76.192657
H   87.790565    5.355135   93.739960
H   70.281738    9.792404   25.222672
H   68.509537   10.312032   80.249039
H   79.325760   37.771915   55.086433
H   94.708092   68.453918   42.470631
H   21.007357   54.588608   45.413223
H   80.092247   30.267118    5.949315
H   83.826370   31.490694   19.385315
H   46.569527   58.620728   94.979225
H   10.296917   92.828232   46.234207
H   79.732544   13.542262   56.977024
H   64.864708   25.791784   28.333490
H   83.231209   67.021255   83.120720
H    4.413308   94.992386   12.449547
H   27.481237   31.629990   83.327705
H   65.388939   33.883549   66.718025
H   27.737654   89.529991   10.662488
H   12.444592   48.543434   38.388443
H   84.022881   60.544884    6.484380
H   60.501194    5.208726   94.548866
H   38.758717   14.743929   31.978666
H   36.933578   14.138855   80.839531
H   11.060630    9.007010   77.483986
H   17.877640   71.395432   60.613991
H   94.454529   27.697050   28.771330
H   33.349495   72.633987   83.932610
H   79.386505   10.955584   73.036934
H   74.071045   45.461754   54.425945
H   70.260826   19.686749   33.247223
H   75.981865   13.842784   15.308710
H    3.557143   55.174202    1.420993
H   56.670589   76.871323   58.189144
H   96.337105   77.095039   28.820648
H   91.875244   51.174358   30.255054
H   42.958248    5.694151   36.841476
H   89.700012   29.470804   54.597717
H   73.010887   67.890991   43.296822
H   93.446869   78.097748   80.995560
H   10.749851   52.062943   67.652145
H    3.451391    4.210015   23.249603
H   97.902634   61.220177    8.579616
H   36.837082   29.602465    9.733724
H   14.355602   73.121468    4.004795
H   36.842201   36.007870   38.546043
H   58.858837   10.580976   97.436958
H   18.070107   54.288986   37.316101
H   11.273696   67.314117   90.852295
H   86.411491   84.868515   12.299741
H   46.404091   28.845819   32.472626
H   15.240147   48.894615   14.062610
H   52.693878   21.935875   49.102215
H   33.760841   70.090202   44.489761
H   51.286110   81.208626   63.944725
H   90.733665   46.093006   85.060257
H   70.758919   57.001846   67.230690
H   21.651371   88.856834   36.066006
H   91.048340   26.903257   58.862904
H   56.009739   48.605312   32.989349
H   43.647842   39.966671    1.270774
H   12.723533   14.721474   63.483498
H   85.451866   40.910629   31.079046
H    3.747074   33.310955   51.446072
H   40.969719   30.275745    5.965385
H   11.464572   77.960655   39.209114
H   65.725151   11.145974   52.932114
H   35.081810   95.787567   25.002956
H   18.389128   39.451450   83.537262
H   94.551353   89.291504   40.686634
H   67.032867   53.914097   80.676460
H   69.176376   99.710739   91.285828
H   95.646156   28.012917    0.865634
H   83.291832   71.868774   13.532463
H   19.901588   53.588844   63.472664
H   66.724213   83.713760    7.088660
H   47.855274    0.711615    0.569890
H   63.780766   90.612915   84.300819
H   92.692154   64.950035   30.929018
H   12.027136   93.245445   60.360210
H   19.780712   40.931641   97.919617
H   47.502960   83.256592   58.732201
H   34.505241   21.789993   82.104652
H   23.003397   77.994026   20.027830
H   31.755821   70.972450   82.240746
H   30.718164   75.571793   35.455944
