100
TIME:    0.547, STEP:   547
H   80.331215   71.858650   98.645218
H   86.054405   34.402340   12.504834
H   89.162659   13.257480   16.917191
H   81.568420   10.113260   10.179784
H   90.271622   16.601982   50.873512
H   19.534145    0.618308   32.916576
H   24.302650   98.272774   33.228886
H   76.893173   35.924244   57.971199
H   40.181694   33.701660   65.656761
H   59.891930   24.239529   29.109896
H   49.374420   88.252380   87.059547
H   34.963230   51.108910   53.992775
H    8.468266   28.613281   70.760887
H   27.997532    3.390740   98.866051
H   87.155357   21.163553   24.478155
H   79.530197   63.893734   87.634262
H   80.088570   18.170975   23.157927
H   12.833421   68.100021   80.582809
H   53.781960    1.298896   92.181442
H   77.842598   94.063324   53.505470
H   31.816788    1.761081   42.396538
H   14.797877   44.821915   72.680244
H   78.440788   90.173500   16.699436
H   68.219299   43.242161   66.450989
H   10.020239   42.793301   40.597916
H   44.150845   11.311007   37.903107
H   14.909964   19.738503   10.820723
H   86.386681   81.971298   84.855148
H   23.065247   98.720421   31.314571
H   21.967699   77.301529   26.873196
H   37.619175   71.094902   66.126854
H    0.295397   37.398468   48.625542
H    8.887255   28.460718   47.075035
H    1.213819   23.593292   48.706642
H   67.175285   17.571335   58.035736
H   20.114712   27.455481   18.762182
H   32.263744   84.503273   51.566723
H   41.381401   48.942554   61.040409
H   26.128761   68.831154   89.699219
H   11.672504   60.975788   81.071342
H   97.861145   74.948814   55.228771
H   82.459923   36.407623   28.498999
H   15.952477   66.780136   40.983398
H   44.429382   21.938524   34.214729
H    9.207645   10.310113    2.915357
H   70.965370   73.487114   85.463356
H   41.855885   55.249615   32.297310
H   56.268627    1.015225    2.423214
H   81.018852   87.146835   22.653536
H   37.362125   39.075085   45.406342
H   43.502888   16.834246   59.184361
H   31.715300   12.981098   38.152740
H   20.225962   25.180420   71.102242
H   64.022171   98.277397   55.953876
H   97.212372    6.457360    5.047722
H   94.250656   11.957073   74.005630
H   30.929138   73.763451    8.011703
H   85.328064   25.229591   99.465042
H   33.417503   61.880722   69.490967
H   22.922661   69.832932   48.051598
H   94.205490   53.131775   71.746460
H   79.497040   22.853958   70.606247
H   11.335169   69.852196   96.031593
H   80.601265   44.770027   12.288359
H   54.034744   17.155857   46.502525
H   67.742287   15.080097   78.528770
H   43.682121   67.271606   93.470871
H   42.580833   48.820969   92.352364
H   84.164726   10.482384   25.925282
H   41.467041   75.656883    0.580506
H    4.661899   58.186214   55.587009
H   28.864702   33.371758   96.670021
H   71.326294   91.250282   47.723354
H   18.151054   14.764082   70.698769
H   88.544968   29.422014   42.864552
H   38.590626   42.630417   59.122364
H   16.618668   79.134636    0.713200
H   57.679382   14.953377   44.649578
H   87.771431   51.900242   23.787701
H   72.699600   79.164268   73.796661
H   21.586201   34.940624   12.681740
H   82.365257   47.799881   41.039223
H   52.405735   16.387388   81.998962
H   87.798248   58.969090   13.467720
H   25.695490   14.667987   94.727043
H   38.703297   29.146069   79.768532
H    3.687625   63.581566   49.626202
H   64.760788   61.499840   90.053795
H   67.034615   63.716011   23.725262
H   17.974010   86.778076   43.767056
H   46.408054    2.968730   45.013378
H   18.759417   36.645302   43.945877
H   20.380306   44.020393   61.232262
H    0.096694   46.412743   63.698620
H   47.134998    0.731844   28.655426
H   39.101562   74.130791   39.195793
H   19.184141   99.071785    5.730371
H    8.873555   20.895050   47.283699
H   82.654320   39.208195   99.232887
H   73.212021   64.655067   45.002304
