100
TIME:    3.894, STEP:  3894
H   53.986725   64.921692   95.580948
H   92.950829   15.870501   23.632002
H   46.689049   54.053764   77.633339
H   82.130203   72.217216   26.719236
H   60.292847   84.878777   60.122116
H   67.640633   96.989433   64.382835
H   48.885036   24.278851   94.968803
H   13.825577   25.482616   50.660412
H   57.905983   11.901239   54.974499
H   68.427940   72.295433   60.176865
H   38.044632   22.925831   64.658730
H    7.215942   18.876490   15.749918
H   95.565475   26.115143   38.097107
H   62.272820   93.073463   53.576092
H   27.867332   22.199501   63.593235
H   44.955627   71.145561    9.804987
H   10.974864   39.528172   27.874533
H   84.351036    5.335335   64.545593
H    5.918829   41.712196   68.511871
H   87.607719   23.122820   81.454277
H   33.201233   68.558105   51.551872
H   35.701920   49.253326   87.668228
H   33.753517   62.952568   20.938358
H   57.246712   83.384094   17.870388
H   90.312897   77.346146   65.297890
H   28.801298   11.582091   24.186251
H   26.294508   80.608841   77.233681
H    3.977965   38.198456   95.485344
H   95.841660    2.386429   73.100929
H   50.306107   94.462883   92.950806
H   69.310432   71.237343    1.298058
H   11.626672   44.923355   38.776955
H   44.645832   83.579002   48.599228
H   42.632721   16.860756    7.703656
H   83.976425   64.563560   61.844276
H   11.130472   90.379547    7.245514
H   53.283737   61.929184   15.297126
H    3.047177   87.688210   97.231056
H   80.706116   96.575188   66.954735
H   96.422417   47.640373   44.406361
H   69.124496   89.796982   34.086651
H   81.650589   86.622986   85.745041
H   44.782139   86.851105   82.741142
H   30.700212   78.031525   61.468384
H   18.880354   78.253174   89.330505
H   27.849712   37.188892   98.978920
H   72.156540   36.607384   62.845695
H   56.447376   35.476898    9.516533
H   78.854721    9.949188   89.140717
H    7.546336   90.005531   11.313641
H   43.247532   93.702583   94.474533
H   94.374435    2.404754   18.427586
H   89.647774   44.587463   76.712715
H   86.517235   43.672813    3.648654
H   30.747696   99.848572   33.466694
H   98.438492    8.438009   60.065857
H   43.113918   77.186882   26.339361
H   36.100578    9.147196   13.254339
H   97.389076    3.299209   12.538235
H    2.055940   27.093779   52.855965
H    5.336784   97.484032   10.789640
H   60.708946   91.697281   19.162392
H   38.423954   41.563896   66.447197
H   10.433031   62.976898   21.417332
H   86.882133   49.837154   58.200459
H   62.130562   48.690498   76.427475
H   75.145462   82.987610   55.064861
H   11.380648   40.239761   52.358318
H   50.979774   69.988327   16.006924
H    9.279230   43.999893   93.533478
H   98.379478   30.452496   15.436584
H   52.888405   22.291046   41.722340
H   53.095627   25.693340   61.909035
H   44.489986    2.958897   71.785912
H   49.915936   34.190258   96.589149
H   17.712732   57.142700   33.912991
H   20.504564   89.040573   59.916508
H   14.927531   96.101082   29.490816
H   48.243179   42.080822   61.131699
H    8.556114   96.877769   85.449699
H   87.075974   69.566879   12.724374
H   33.496201   69.658340   61.163696
H   64.172493   72.255676    0.784264
H   18.051565   45.377266    7.760756
H   62.723892    5.311708   70.272812
H   61.674702   52.088844   12.194491
H   27.226187   20.227409    9.224367
H   18.636454   93.531349   55.246727
H   36.496201   77.360680   96.342903
H   22.056379   49.067131   63.415985
H   83.381104   83.696037   15.695962
H   66.412994   88.352104    7.724653
H   35.066353   44.357025   20.133524
H   23.597439   49.433273   89.370995
H   89.264717    0.927986    5.567580
H   15.550063   41.960945   66.318748
H   53.514801   91.149437   13.241423
H   21.159872   49.392761   93.726845
H   23.212059   53.635799   18.873230
H   81.081978   78.706001   22.618353
