100
TIME:    1.807, STEP:  1807
H   95.122711   56.310196   97.491653
H   51.005272    2.716981   91.985313
H   10.815550    3.907308    2.123216
H   81.779907   58.201927   41.115582
H   78.985916   17.596531   16.709618
H   99.995247   99.250435   57.699703
H   58.264133   83.355034   31.762611
H   77.859657   44.929935   42.281616
H    9.208488   12.557793   86.342903
H   25.458944   42.329201   78.450798
H   32.172287   38.950932   65.689163
H   86.871872   14.266029   64.304771
H   28.319473   52.381416   45.527596
H   65.609535   99.506172   94.752876
H    2.479205    8.618872   63.913452
H   28.869492   53.683418   83.044693
H   78.787369    1.496787   37.877663
H   39.759254    6.826186   36.901169
H   73.406776   54.160835   58.560711
H   43.833733   67.438095   39.361580
H   57.046692   76.325195    8.199619
H   35.614872   46.484970   65.393288
H   61.617973   79.926003   80.649384
H   51.151649   58.353855   72.871445
H   64.955193   42.862305   49.894463
H   38.373409   73.764465   19.802481
H    6.258770   67.364273   35.824230
H   80.072189   40.784359   26.501703
H   50.462402   13.037335   71.754570
H   70.281822   46.116837   27.039570
H   87.183998   84.087814   66.421906
H   79.852325    2.588922   31.981010
H   97.639725   36.273079   60.585785
H   54.451485    8.121967   95.625763
H   35.856010   22.324959   34.761909
H   29.666687   26.432890   14.427800
H   53.113297   38.360695   50.849796
H   89.304878   25.880878   49.955616
H   69.485977   41.933876   68.935410
H   92.994347   43.018116   80.205643
H   11.753395   18.186022   84.916672
H   69.218323   92.956200   87.696075
H   26.805586   74.335983   31.995193
H   63.970055   43.056076   57.412182
H   99.912086   60.593601   10.739817
H   54.774738   97.382545   90.508125
H   55.160328   23.217882   43.063911
H   56.335918   13.988134   80.384865
H   17.851568   82.793541   72.393692
H   63.788364   58.253094   57.279629
H   43.406757   95.188972   72.469574
H   92.950325   96.062698   55.436825
H   46.363808   32.486328   97.921471
H   34.846607   77.724724   11.554716
H   96.904160   16.915884   15.739822
H   95.827194   10.632877   31.112259
H   10.808516   37.406944   27.848288
H   91.504242    6.238503   67.011429
H   32.790977   15.118445   72.759811
H   39.774975   66.681015   12.214450
H   73.687546   94.538765   73.507103
H   34.777191   11.125053   13.592540
H   96.799957   83.929192    9.590985
H   67.124023   51.624123   78.081718
H    4.044113   16.521679   63.844608
H   90.338509   52.441689   53.029293
H   42.589920   10.836308   54.304577
H   55.543953   20.881584   52.587650
H   46.963783   19.946823   46.901337
H   66.990784   39.029976   97.928101
H   64.652000   72.452415   40.475315
H   24.971991   91.554123   88.921806
H   89.171494   28.924763   15.413937
H   90.422081   35.028839   95.813179
H   49.293610   31.214846   38.381207
H   68.380013   23.383974   74.340630
H   31.018511   69.929184   23.006105
H   16.876476   32.565018   14.232989
H   48.168037   48.208836   37.839149
H   10.906799   10.540422   65.246529
H   46.243641   47.975903   87.989143
H   76.904755   56.028641   35.677689
H   32.131641   37.417145    2.007781
H   74.476143   66.788918   98.380432
H   64.343582   35.855499   72.584091
H    9.700764   75.430168   67.266808
H   87.840157   71.969299    9.707952
H   85.044296   60.621780   76.958656
H   93.182076   93.561745   13.415882
H    6.574915   34.930748   88.813744
H   97.972389   71.003143   71.622269
H   11.986883   31.409037   67.951210
H    1.225190   81.775314   58.709641
H   21.880901   22.840136   48.654808
H   25.350388   87.869354   57.609337
H   43.172394   24.374449   74.114975
H   19.171257   71.380547   33.267166
H   13.499829   31.623199   27.123997
H   22.631268   44.639561   93.687485
H   51.462173   32.288166   23.645977
