100
TIME:    4.521, STEP:  4521
H   11.585777    7.422628   95.006912
H   75.616554   49.851112   63.170738
H   57.466568   99.163399   70.276115
H   82.235443   46.385612   92.351326
H   54.676865   35.135590   43.121094
H   57.917301   96.310158   26.475679
H   16.025116   66.618469   44.001095
H   64.544609   79.725586   93.090324
H   42.493126   51.617706   15.505751
H   51.292976   81.298225   84.727203
H   79.722626   48.154697    4.264248
H   83.286812   50.304939   71.119408
H   55.572739   88.195946   75.792725
H   31.227119   91.140877    1.289179
H   35.493736   66.193451   33.451580
H   19.744732   16.306023   57.758728
H   60.555214   80.999420   84.952812
H   97.747368   74.840279   42.805126
H   15.684483   68.016647    1.547416
H   70.711937    9.807585   24.143290
H   95.994179    6.136878   34.536499
H   95.813019   50.085678   34.273346
H   25.382164   57.853218    2.998219
H   98.991577   90.903961   71.305023
H   67.887238   27.621590   69.928444
H   25.937052   93.002792   65.283043
H   72.228737   54.545887   89.671120
H   51.072460   67.464706   16.210848
H    9.475753   59.272396   43.461555
H   74.348633   78.944786   42.794777
H   93.984398   27.462631   51.691811
H   51.215862   27.601830   80.732445
H   88.810402   37.703987    5.084340
H   69.124466   59.400055   81.289009
H   68.391357   17.167351    0.026947
H   65.640442   39.533085    5.214260
H   13.422075   38.967758   64.702438
H   77.129906   76.217064   41.475483
H   54.241306   82.913139    6.194060
H   37.365875   88.942329   93.737061
H   26.273056   11.311421   48.858501
H   25.299423   14.762345   15.201897
H   50.182858   90.611038   28.030760
H   90.662964   88.536377   22.774508
H   64.491310   53.514267   42.985126
H   19.760593   49.147968    1.526196
H   77.054977   70.705101   68.864418
H   56.480862   41.934799   48.311775
H   97.185593   58.019505   64.131897
H   20.696537   99.544090   67.458473
H   43.199696   33.170525    1.085318
H   24.844213   44.224491   77.267181
H    2.650469   48.223022   40.296604
H   71.994133   33.440628   31.314781
H   80.826019   54.798168   38.800442
H   99.223007    7.778069   38.721298
H   82.863373   59.095192   85.972099
H   89.412735   49.935158   97.103745
H   46.837730   29.792877   64.404716
H   60.678104   75.287735   35.022591
H   44.889130   68.323021   61.901947
H   38.455498   85.861252   90.792770
H   80.991570   98.777756   23.451927
H   53.489288   66.390976    4.392391
H   11.767888   99.758789   16.590132
H   23.612770   17.520363   13.500175
H   24.840464    4.666373   85.335678
H   68.069344   76.097855   82.332542
H   82.228439   24.936096   76.683990
H   21.982161   75.536621   92.213196
H   78.470009   87.790817    7.914333
H    1.190565    1.481603   87.628380
H   12.213564   94.680244   45.831253
H   30.684429   63.283154   34.530998
H   80.146248   35.084797   44.120815
H   32.537201   97.326012   91.723770
H   77.432938   34.695950   71.004967
H   44.385128   55.104328   64.119499
H   78.310570   40.239124   68.127327
H   77.806763   62.732037   31.432945
H   99.341202   76.053482   50.198208
H   80.541527   73.753128    8.734045
H    3.836810   82.726379   60.502026
H   61.186333   99.030464   50.492813
H   32.194763   66.094994    9.492133
H   47.242489   75.119713   55.735199
H   69.102089   74.639389   39.122330
H   28.727522   43.331932   48.726639
H   49.507675   42.449745   91.214851
H   66.622391   23.269012   85.831955
H    9.040671   17.553226   28.937052
H   12.805715   35.502785   19.672316
H   75.258415   63.171043   68.620407
H   84.199661   87.464966   31.646818
H   78.425011   44.766449   19.974350
H   67.337646   17.202305   33.933571
H    3.746974   27.131374   77.181976
H   23.460798   54.731293   83.690788
H   93.343231   56.338551   66.356819
H   20.028208   62.614285   62.218884
