200
TIME:    0.655, STEP:   655
H   22.223223   61.097698   22.435820
H   31.663197   38.936687    6.744754
H    9.439651   87.302635   65.789177
H   31.831564   81.824379   33.647549
H   10.803982   94.247360   47.691799
H   76.117920   41.551243   53.265965
H    9.371833   55.009674   57.684010
H   12.188544    6.806490   10.341743
H    4.281900   81.284645   37.595497
H   96.252441   69.085747   79.703209
H   26.658560    3.459358    6.076058
H   32.493881   53.099789   32.516064
H   21.359837    0.780924   44.282860
H   84.788727   54.957844   62.263515
H   99.585648   75.139282   41.957493
H   17.203926    8.867310   45.370579
H    3.729908   27.155001   95.282967
H   26.707811    3.117438   36.132042
H   78.833214   14.677547   48.593014
H   91.376556   74.005516   21.383266
H   63.065506   97.474693    6.827641
H   80.790062   64.677025   54.582222
H   82.577881   59.524071   39.178513
H   17.398390   91.842789   90.284775
H   21.284523   29.394663   30.602039
H   18.317560   80.753914   93.250076
H    6.932460   67.123863   65.767731
H    4.034575   87.249069    1.823258
H   28.547592   43.915596   35.908306
H   74.296028   31.881660   84.270355
H   12.819676   68.787361   16.702196
H   24.379417   73.232895    3.820635
H   17.095947   17.915321   78.248238
H   82.691582   64.030685   45.544060
H   28.072891   72.652878   31.062153
H   19.505177   40.459766   84.235275
H   98.175705   65.471825   89.070473
H   12.387543   55.490311   96.508369
H   37.711021   31.540087   53.656353
H   86.102837   37.981907   47.485443
H   80.627792   85.837349   15.299131
H   33.995590   34.404591   27.525419
H   69.229630   78.248505   65.738174
H   36.356735   83.389915   33.590599
H   42.956646   88.956779   59.340034
H   35.219738    3.038189   47.201294
H   87.794662    5.880260    5.277852
H   80.012482   65.544273   32.728531
H    3.129868   13.003566   61.465538
H   47.266342   19.674311   88.155525
H   68.336029   65.243393   11.422024
H    5.274146   42.840923   72.464073
H   63.369556   82.552902   13.352340
H   16.230131   90.941406   87.848755
H   59.632828   67.155464   77.351837
H   99.985649   62.126110   92.237549
H    4.246128   18.315895   45.202915
H   71.942673   68.226799   97.812904
H   19.424248   82.494278   17.163685
H   33.504959   93.658852   59.322533
H   49.075466    7.279644   30.111422
H   97.395103   17.407988   52.247559
H   82.880455   33.803322   70.883987
H   34.181267   65.744415   12.933292
H   78.019554   82.265823   34.899769
H   22.460224   32.684166   40.322861
H   70.673439   14.408167   94.409187
H   95.017433   92.393456   95.487839
H   31.284096   11.461377   56.727081
H   42.848068   48.863167   50.960430
H   58.283108   83.769905   84.382034
H   20.477015   12.913599   41.859840
H   90.665176   32.837704   85.599312
H   21.385586   99.842712   72.654396
H   84.198288    7.589463   48.099434
H   63.803375    4.425282   60.165623
H   93.673508   45.399662   66.275444
H   11.184262   13.526863   33.776634
H   14.685677   48.182541   25.746983
H   62.022346   88.352455   74.580536
H   60.981663   23.088127   94.972458
H   44.884613   61.126907   75.027794
H    9.380598   18.218502   78.137344
H   11.140942   75.429924    7.377232
H   24.129986    3.712293   46.021351
H   36.358898   71.254135   19.143848
H   54.455051    3.648877    2.722754
H   71.880333    3.098510   27.095083
H   78.388168   73.067314   78.665344
H   21.365520    4.648868   50.299847
H   23.846514   38.475349   78.908592
H   81.164688   92.176590    7.423021
H   66.974266   12.181665   83.910408
H   41.418533   79.524017   80.499817
H   35.640366   51.312531   85.224060
H   52.085945   36.987843    9.549296
H   84.935097   99.925117   16.202133
H   95.486404   34.887112   52.522823
H   27.614296   65.620811   54.351948
H   74.420197    4.670691   27.351725
H   28.382048   91.900696   88.481575
H    6.003902   82.935143   63.575439
H   31.781958   22.003338   36.301941
H   41.817024   68.705704    6.642770
H   24.788612   22.018955   38.542297
H    3.852734    6.454594   24.461082
H   85.317230   35.249771   54.327850
H   62.305794   50.208271    2.694248
H   83.343170   34.851177   19.199955
H   17.698011   22.274160    7.568381
H   52.654652   92.460480    1.087834
H    2.657488   73.781189   95.238297
H   49.886189   85.090446   84.908539
H   61.818382   10.450460   64.252228
H   50.001305   99.249680   12.221498
H   97.102188   93.657372   97.656120
H   15.512283   14.286325   89.018051
H   38.665592   47.423210   25.683067
H   34.622753   73.294472   63.029099
H   81.734512   54.957638   64.823975
H   44.885933   24.517193   73.921005
H    0.382744   17.648983   60.395443
H   42.241585    4.319556   36.340401
H   97.963066   52.385098   99.691734
H   64.498543   98.676971   79.087662
H   62.926434   73.706650   17.518528
H   85.071159   51.127640   55.027466
H   66.351181   90.824821   38.507557
H   97.574799   37.461639   75.432831
H   87.860054   22.182344   73.571732
H   65.361313   70.367889   19.270832
H   65.770859   90.167435   19.113705
H   91.082619    2.785474    0.462348
H   80.571404   23.643150   54.814762
H   24.927410   93.866257   37.346870
H   51.304878    1.094236   77.567673
H   69.579781   87.622032   75.998108
H   94.758156   51.263283   76.641174
H   57.160629   50.137276   71.451935
H   43.672745   89.186653   83.926193
H   71.163124   50.864552   28.315598
H   38.133453   53.620213   55.921211
H   41.664722   64.399361   85.386482
H   38.696892   11.505399   85.001411
H   59.808887   56.003609   62.638874
H   61.145802   69.125458    9.970356
H   54.546471   94.960396   44.310417
H   31.320618   57.970810   66.443993
H   76.279633   47.465328   93.818901
H   22.690954   93.205627   74.466728
H   61.592648   68.357910   48.211243
H   51.256870   95.626480   35.147167
H   95.454735   16.321049   88.896568
H   20.880198   10.668508   65.697205
H   30.068855   64.838959   68.260956
H   75.821777   44.557919   66.829002
H   63.655285   73.329521   85.669724
H   51.946278   30.001381   19.446737
H   93.387955    0.170636   87.214218
H   59.026947   40.010986   94.167053
H   58.032429   67.549377   72.381683
H   24.118999   20.905661   31.948757
H   83.083046   16.476023   37.059494
H   26.507931   32.371109   53.443691
H   54.980606   36.170033   13.902213
H   19.063765   51.234665   60.033241
H   67.753723   90.854622   56.621132
H   23.994743   49.814190   65.173508
H   99.711960   26.820618   35.876995
H   45.411572    7.327948   85.730042
H   71.436829   10.569131   35.941246
H   31.826382   50.032619   58.732510
H   45.691341   59.621819   78.747086
H   66.115692   64.611618   83.867683
H   52.149384   91.914673   79.718140
H   13.720214   49.902519   23.684895
H   31.154457   65.885384    4.267864
H    5.408074    9.596634   70.186752
H   64.988472   11.731981   64.281059
H   66.559280   58.906776   92.239304
H   73.841103    0.061053   32.070309
H   27.598305   30.612637   84.766426
H   46.527016   89.729851   14.288734
H   60.518551   25.988289   92.457695
H   90.889671   70.334541   76.687088
H    7.948295   39.725586   86.031227
H   45.802521   97.416122    8.460560
H   70.483498   84.803291   40.047962
H   94.599922   63.024048   71.286377
H   57.160206   56.015812   70.946243
H   67.645134   17.294125   76.337898
H   44.250835   96.207199   19.338419
H   13.318546   27.397024   67.313278
H   27.853424   80.093513   41.676796
H   70.653046   35.718826   20.458776
H   76.341324   11.401774   23.880671
H   12.219831   96.875404   17.474043
H   16.848648   89.158234   35.262859
H    6.379190   12.773098   59.456810
H    3.679337   20.932611   91.983147
