100
TIME:    6.814, STEP:  6814
H   56.519119   97.144569   92.907608
H   12.290268   74.105507    7.749370
H   96.895599   64.130379   43.356617
H   82.620316   51.913971   66.665771
H   34.138672   18.929487   80.950134
H   22.351589   93.825981   53.560001
H   95.848984   21.451122   23.316828
H   84.319328   78.099121   82.555122
H   86.126747   31.155167   71.170876
H   88.644936   14.223703   74.513405
H   66.433350   40.418507   83.390282
H   95.768051   65.241241    7.901431
H    9.251266   49.533047   47.948174
H   17.692669   84.073219   75.789009
H   63.368843   61.372765   23.217693
H   27.548130   15.751802   67.419434
H   76.165718   32.663891   93.693642
H   46.781651   63.269806   63.315132
H   51.394146   64.211227   22.350300
H    8.938011   61.106548   80.261436
H   59.924301   77.862396   72.297356
H   15.645157   53.129669   39.003220
H   94.765480   39.204399   37.394760
H   85.939262   18.343477    1.006036
H   85.877022   45.776276   86.862831
H   15.478664   25.223450   49.655632
H   74.500740   59.228935   35.168407
H   57.595413   74.494194   92.006760
H   59.334801   67.311378   35.069916
H   62.272053   22.193596   25.081776
H   84.229530   33.080421   70.277016
H   95.997498   64.244629   68.457954
H   50.326649   69.937737   11.655889
H   66.009529   49.260239   84.688782
H   11.374371   43.754616   39.621010
H   64.967003   19.130447   98.003365
H   33.350540   54.992310   45.381809
H   82.356911   34.253567    3.287510
H   57.452976   32.949699   83.985306
H   21.391144   74.279999   74.146591
H   69.563034   89.988625    2.880401
H   25.967285   68.324249   27.827259
H   69.928558    4.363110   93.656883
H   44.246120   27.015402   46.972145
H   65.590691   63.044056   39.202946
H   90.168785   92.883469   10.843855
H   94.969040   95.405899   90.872124
H   56.603512   65.551971   90.189651
H   64.206917   68.113564   72.662308
H   68.800537   34.446873    7.096565
H   43.033710   11.795649   25.256256
H   36.287045   31.450768   26.739723
H   50.216190   61.518616    7.121687
H   18.896599   96.024246   32.498428
H   98.253647   55.752022   58.306477
H    2.082588    5.366056   60.662155
H   28.230043   92.931129    4.055493
H   18.671247   33.389656   38.043320
H   27.682823   26.680233   88.373085
H    9.365942   51.535625   69.804222
H   89.532646   61.687286   83.122757
H   57.075752   64.518326   87.041901
H   36.662800   42.308266   66.214020
H   10.944427   78.881836   42.140644
H    2.781154   16.621010   30.127535
H   82.752747    3.529219   49.080704
H   40.868881   83.939484   96.041397
H    9.676224    7.236821   91.951202
H   96.509865   60.175751   32.870541
H   68.432823   90.866142   87.384796
H    5.656527   31.777084   80.411446
H   12.127629   25.378559   55.514595
H   62.705704   81.259033   87.037170
H   80.205223   18.161758   98.289429
H   90.701530   38.356213   17.945522
H   86.744392   44.286617   37.433739
H   85.639252   36.031857   11.588800
H   52.114437    5.169028   90.750923
H   88.269463   33.503857   93.703850
H   65.360031   37.829262   33.888908
H   44.212379   99.775620   87.246216
H   52.613258   88.660568   16.945538
H   48.876709   21.072180   78.874557
H   18.942356   95.247581   41.063190
H   20.544050   22.665131   87.211571
H   94.464645   59.345802   14.968219
H   22.246447    7.919276   48.461220
H   65.616875   59.811733   24.927277
H   97.091904   14.779879   72.461067
H   63.890629   28.929455   67.798889
H    2.879613   41.367950   77.361008
H   82.465897    7.957515   63.356087
H   22.243870   31.973232   45.941658
H    5.813988   26.570276   86.256592
H   38.783150   39.373314   72.664886
H   56.730057   26.653868   15.497219
H   21.739042   58.721161   45.310150
H   25.124727   23.616417   42.090263
H   84.109917   66.226707   74.293846
H   62.453396    3.777246   41.326504
