100
TIME:    9.980, STEP:  9980
H   42.414948    6.808556   90.009048
H   24.852871   45.666508    7.375272
H   51.317875   91.905510    6.189384
H   83.151718   21.474848   93.124405
H    5.769930   72.697998   95.107857
H   73.260254   90.396019   67.099480
H   29.918682   35.235840   70.902176
H   35.477982   51.998005   91.862938
H    8.300423   26.755543   71.883080
H    2.167106   59.683018   98.478096
H   71.939667   67.808075   78.422264
H   74.933632   23.935535   82.542000
H    7.358103   57.911835   33.323204
H   60.931534   74.314735   16.722057
H    1.823344   78.570038   70.960228
H    0.247706   38.841721    4.613283
H   21.574898   42.069702   81.907120
H   14.483748    9.212112   53.569756
H    0.711772   97.025024   89.159836
H   23.637699   93.876190   95.817436
H   72.048874   62.678555   86.367462
H   19.172668   57.332581   69.389099
H   52.494446   13.458630   46.850479
H   91.771896   56.217987   65.873978
H   72.642563   94.695969   10.239449
H    0.547617   31.893127   51.719868
H    1.492015   27.619532   97.981613
H   90.458382   22.272373   96.656761
H   28.176723   54.555546   85.412491
H   83.670952   43.834641   76.770119
H    8.830602   16.981995   19.793259
H   95.900742   76.773285   75.365501
H   73.336098   38.297668   96.874168
H   99.780228   59.115227   51.309486
H   32.581276    4.043942   32.244595
H   40.181293   67.112244   88.051643
H   37.010979   39.046638   94.850418
H   51.498821   76.317970   26.702065
H   23.812305   63.969566   77.176460
H   23.189335   77.888916   23.239912
H   53.188919   98.622253   77.468956
H   59.153236   80.745926   89.445061
H   97.175018   23.357052   22.338634
H   42.095928   80.163124   56.523632
H   90.933502   38.096104   10.110190
H   49.307785   53.264050   23.706213
H   19.718014   67.589233   21.270285
H   56.796749   98.160767   86.083038
H   56.752762    5.912563   46.329559
H   35.262802   82.644768   85.731606
H   46.852467    6.441742   52.432449
H   90.156693   37.669113   18.910746
H   15.877943   79.876160   23.249126
H   45.575348   44.372398   72.206245
H   46.172707   33.204079   85.219879
H    6.025837    2.035732   52.884033
H   28.940712    1.577449    5.168460
H   82.924759   34.399574   56.493553
H   77.383095   60.463699   45.320644
H    0.442760   94.883484   79.755653
H   89.250183   14.455297   36.283993
H   44.708214   35.049637   43.792603
H   51.634624   26.317041   49.135880
H   28.348461   96.128265   56.185165
H   28.445564   63.757885   24.962572
H   88.262970   46.138176   36.280346
H   86.854042   93.397156   48.896923
H   90.978767   88.303841   43.304321
H   54.305244   32.687180   34.304737
H   32.713577   49.912716   80.676208
H    5.112866   16.355991   42.440315
H   51.437759   20.225975   87.575531
H   56.277924   24.658571    5.860073
H   10.513409   17.786491   10.176245
H   43.216835   43.010273   57.991886
H   61.594368   47.197704   24.402271
H   73.179634   62.006947   67.742393
H    0.850487   98.162315   65.610130
H   40.090157   24.204311   29.035120
H   10.097323   65.361336   61.135323
H    6.190280   32.530041   76.474449
H   90.187004    9.201669   52.076355
H   49.130867   74.019203   80.387970
H   36.757206   66.169510   51.897949
H   66.388992   24.611359   80.305267
H   21.600124   75.637291   34.824818
H   33.696552   77.724541   99.427986
H   16.533390    6.468163   92.106842
H   62.798100   38.501366   46.567268
H   83.972992   98.670273   80.976746
H   32.446037   12.321620   44.221458
H   16.717836   46.070572   23.684999
H   25.190617   26.964315   90.773308
H    7.753721   18.342350    5.936633
H   84.042038   55.782845   45.414742
H   18.228714    1.633653   51.968994
H   70.436913   40.409348   63.229111
H   19.013597   80.270447   78.525108
H   33.288689   79.898247    9.107327
H   59.106316   22.532578   36.334965
