100
TIME:    5.773, STEP:  5773
H   26.917685   92.608727   93.860672
H   41.038307   17.693487   42.111828
H   78.993881   89.237106   55.579662
H   82.445587   94.801849   23.724712
H   43.462814   35.488831    9.176010
H   38.498081   94.953773   50.466297
H   50.406452   51.159122   41.909199
H   66.139877   88.039932   78.136543
H   11.716576   31.243073   36.697014
H   17.080381   99.275093   33.754032
H   63.264633   98.531952   83.664680
H   35.501999   13.061106   82.000862
H   75.679825   12.485546   51.387383
H   69.236443   87.281868   96.567116
H   50.719627   54.359726   73.270691
H   69.403946    6.801328   53.831757
H   59.876808   63.808361   98.927307
H   24.519667   13.924046   99.404335
H   35.184116   20.537111   67.504593
H   36.981918   83.216591    9.385248
H   21.698708   81.497070    0.555618
H   15.843475   51.747726   27.653976
H    8.665112   47.670784   67.178009
H   82.663338    5.890109   78.320587
H   23.108402   28.331985   79.174782
H   20.229731   55.996269   47.550362
H   64.267746    2.499226   14.510891
H   45.432537   25.903816   57.599670
H   36.699532   72.863770   84.279785
H   22.355518   47.958092   42.325180
H   43.259644   39.731594   52.637550
H   30.267857   93.011276   64.828529
H   77.000114   46.101860   17.874388
H   22.024727   44.661674   28.543169
H   37.270935   22.525232   76.263016
H   74.474716   37.595207    1.276191
H   33.505089   93.114868   63.355145
H   25.384289   53.306904   29.826168
H    1.390620   55.632622   84.865929
H   19.441710   71.735023   92.241966
H   40.707581   54.266777   78.355080
H   13.697118   64.241959   74.680260
H   60.967068   98.118912   18.464230
H   10.718916    9.542562   45.189049
H   55.889988    4.120290   50.121807
H    3.605751   73.027969    6.614634
H   86.836227   38.793900   80.880836
H   56.547726   54.830002   25.778418
H   33.780296   54.329140   14.186120
H   46.954990   18.600103   79.892624
H   43.105190   12.297468   14.283797
H   85.689903   28.047852   95.074409
H   28.621349   55.482544   67.583549
H   43.001175   13.009246   86.563499
H   81.139885   64.524109   49.450924
H    0.786003    6.461087   96.100250
H   62.233498   22.969521    5.047747
H   96.186432   31.699411   64.856186
H   45.580444   82.692238   68.287819
H   78.059845   71.520874   99.412743
H   23.866043   10.101309   64.286156
H   94.022865   74.207809   34.144363
H   65.990700   13.343681   37.598511
H   39.461189   73.211105   70.405136
H   61.465012   99.763748   33.183811
H   46.701378   55.280113   87.528145
H   24.390141   47.948978   45.783157
H   81.585075   47.701694   42.185383
H   44.628452   34.975365   98.159210
H   47.344612   38.507294   89.576843
H   38.714577    2.605688   92.896584
H   97.957352   59.930344   79.294418
H   30.581444   32.749886   13.726974
H    3.125397   84.045555   60.141350
H   40.510548   36.871021   39.031021
H   62.138855   77.568657    7.480370
H   91.105858   26.180468   93.146507
H    3.206370   73.239021   33.261032
H   38.348873   36.561604   82.092354
H   16.411709   94.536568   23.571941
H   23.840639   89.005997   25.027472
H   74.490906   81.909561    4.029150
H   83.030098    3.664047   79.735199
H   47.322502    6.166936   36.142529
H   71.231880   87.780327   88.124863
H   18.424099   21.105244   42.677933
H   52.720345   83.608650   98.822342
H   48.874718   43.112507   35.720726
H   75.489120   72.740913   80.975105
H   55.928623   71.760300   30.588724
H   60.277611   85.156754   55.376995
H    5.442438   29.663725   43.524414
H   55.513870    0.736604   65.439529
H    5.206264   63.414379   16.063433
H   56.780174   32.619541   48.742985
H   70.747711   67.762177   69.265930
H    4.369083   98.981529    5.178626
H   27.134104   72.105255   62.986191
H   33.700531   61.735432   61.488899
H   97.795212   30.490677   41.609554
