100
TIME:    9.862, STEP:  9862
H   50.394928   17.629513   90.117081
H   28.111393   39.271900   99.934929
H   49.289570   83.415977    7.574673
H   83.131912   26.336748   99.591934
H    6.827295   63.239777   98.307411
H   75.089600   90.523857   55.413330
H   36.102779   27.267565   61.674419
H   44.752548   41.789860    2.696939
H   11.201088   38.100937   79.310295
H    5.390486   57.988712   93.857918
H   82.915741   63.060059   89.789055
H   79.436775   18.021221   90.941505
H   14.882763   65.053795   45.049202
H   66.774277   74.678444    7.741879
H    0.389897   89.110382   76.635521
H    4.992503   49.162399   14.408469
H   31.063728   34.265274   71.165115
H   11.960296   14.953800   57.659676
H   98.873444   92.075348   82.938980
H   26.816547   96.382538   87.783440
H   79.051163   74.425362   89.570618
H    7.859894   57.175934   79.437897
H   54.070290   14.423094   50.187576
H    2.735489   54.806366   74.637192
H   76.863022    4.053757    9.368439
H    1.104264   35.371750   62.824680
H   11.667313   32.524693   95.640915
H    0.415321   16.764530   92.756798
H   25.610958   43.849552   90.990555
H   79.146202   46.755112   67.389320
H    4.186342    6.400875   29.129044
H   88.450119   80.034058   86.289360
H   65.024818   46.931244   86.243797
H   94.794540   69.929253   56.280769
H   35.517952   12.978157   25.064955
H   29.923723   57.869488   88.422554
H   25.693451   43.367928   85.552444
H   56.375576   78.476814   18.375481
H   28.793491   66.540733   88.611671
H   34.303509   88.935211   13.955892
H   61.253525   94.572845   74.688927
H   69.098045   80.281387   83.424065
H   96.159515   22.648991   13.815733
H   49.630276   78.182533   44.986691
H    1.178565   42.766697    0.019012
H   50.830139   51.013378   23.226820
H   18.795238   61.171719   20.137297
H   56.789547   96.945404   78.781860
H   53.304092   15.679966   51.075958
H   32.786163   80.847832   93.981667
H   46.195271   17.784225   52.210983
H   84.421982   48.619080   26.657106
H   13.430338   79.191956   30.102421
H   48.307663   46.298073   66.999092
H   55.567909   22.863092   84.216980
H    5.878868    2.159857   56.901031
H   21.460381    4.982381   93.945625
H   91.711380   45.543098   59.532860
H   68.076118   55.477112   54.380047
H    8.229408   85.814178   83.111855
H   81.806763   19.942884   45.483837
H   48.896263   36.147964   49.132095
H   43.614132   34.354057   57.220291
H   20.245594   95.485474   59.389221
H   23.761917   73.181923   13.973485
H   95.511932   52.004326   29.303263
H   96.321266   89.317139   43.200024
H   99.129799   81.555428   37.663239
H   48.423790   41.165909   41.705845
H   30.317062   43.986248   80.926483
H    8.860373   24.385487   43.855537
H   61.154358   24.143944   78.925751
H   63.971619   30.495462    8.885876
H   13.110683   25.254669   17.187086
H   37.532539   42.836521   49.045017
H   58.804436   39.634548   32.342171
H   62.462837   72.219772   65.650169
H   95.306725    5.877677   59.092865
H   34.431969   24.550915   27.718027
H   15.884025   71.789253   71.301155
H    3.880416   31.309275   69.421745
H   81.331963    8.435540   61.947800
H   41.666740   72.045815   69.150818
H   28.639297   56.072098   62.675064
H   72.134506   31.992661   91.744080
H   24.316235   71.303398   26.630573
H   25.815599   86.304100   93.801308
H   14.635786   15.910405   93.329407
H   60.349369   45.071526   47.532356
H   94.405304    3.525177   76.758087
H   27.616995    5.950195   41.729515
H    7.987031   37.195724   21.437029
H   17.626560   23.423559   81.648186
H   97.015480   11.233380   96.957527
H   86.082047   66.352699   42.703133
H    8.482406    6.293134   58.063812
H   79.803307   33.637527   70.015335
H   19.241365   74.431305   80.894615
H   38.909966   79.388695   18.991375
H   51.777229   25.560631   47.702656
