200
TIME:    0.293, STEP:   293
H   11.099756   62.299099   16.245844
H   28.436676   33.651905   92.048767
H   17.026819   71.457954   47.958733
H   19.629061   77.593239   43.113758
H   14.647429   85.072525   52.896488
H   87.894409   51.376492   63.980526
H    4.127097   55.266525   50.677219
H    4.076327   91.175049   23.191055
H   89.580872   86.711662   46.426483
H    8.995495   74.156487   93.981926
H   14.041036   95.726387   94.636520
H   30.996964   43.437489   15.267643
H   12.474994   88.766838   59.119469
H    1.898484   53.430546   44.819729
H   17.062992   72.352585   42.848186
H   27.755539   23.782631   53.179684
H   86.700684   10.200750   12.858816
H   35.303616   85.714897   42.576797
H   66.788826   27.783136   43.264042
H   90.224869   78.976830   35.416180
H   58.721130   79.403969   23.412304
H   88.849113   50.840202   68.532280
H   93.418106   62.156105   47.864502
H    9.730830   88.542389   91.419891
H    5.550114   14.835591   43.519169
H   18.617220   64.688286    5.206083
H   99.922020   59.860218   51.212830
H   95.726593   72.315796    0.870728
H   13.300851   54.918770   38.028019
H   90.654411   22.184147   96.792542
H   13.292296   53.663517   16.259611
H   30.962265   64.748520   94.907990
H   25.842697   10.125979   73.826530
H   94.672447   63.635742   39.216682
H   45.445026   87.611008   33.815945
H   31.329998   48.713528   80.084229
H   87.785660   73.285072   86.352821
H   30.293318   46.126289   12.784460
H   51.108711   44.502762   45.609730
H   89.574471   39.470539   61.626068
H   80.520081    2.748001    3.283465
H   15.977343   41.995510   38.259602
H   75.747574   86.564407   52.296291
H   37.163193   65.808037   20.643864
H   30.587822   77.912178   46.276527
H   40.313953   12.459182   43.264290
H   80.972916   23.615597   97.341133
H   88.825516   65.549797   45.742325
H   89.130058   26.740887   61.204544
H   60.220757   18.040682    3.470136
H   76.947449   69.825287   25.768295
H   19.112082   36.610210   64.681206
H   53.605968   92.905487    8.621600
H   21.617792   83.302155   82.488022
H   74.955521   75.206230   89.059280
H    4.626232   71.044388   80.383728
H    5.279229   16.946022   49.086063
H   67.987717   59.811474    4.346856
H   27.062809   75.501297    8.408350
H   41.877480   95.691566   66.014473
H   50.247868   14.342361   40.688015
H   90.888954   16.550436   49.472359
H   72.907448   26.304401   83.096848
H   25.410177   65.227951    4.850832
H   72.200356   76.869186   20.096859
H   36.660694   18.620216   33.815964
H   84.195412   22.044039   86.930122
H   97.044624   91.570427   88.320862
H   18.407703    6.569467   61.308975
H   44.931877   42.553741   50.979763
H   58.441914   77.508812   74.699020
H   30.650946   22.428719   44.393829
H   79.175919   26.579372   97.721031
H    9.592022    7.799732   62.115456
H   79.790390    1.729527   65.120659
H   54.653397   17.205437   62.531139
H   95.203568   31.923262   71.395897
H   24.592184    6.935040   46.155205
H   11.933502   32.054771   33.764606
H   67.477486   90.371361   91.748138
H   45.617542   29.206295    0.346919
H   28.966875   67.637177   86.218773
H   10.792934   14.247666   88.729004
H   22.945740   63.592674   95.578949
H   37.020878   99.884293   56.280209
H   26.160406   83.919937   26.679531
H   38.230618    2.894549    1.892827
H   74.890739   16.571785   13.441234
H   67.308998   72.182487   77.359207
H   23.178669   88.422760   54.282421
H   39.021076   35.350327   80.518745
H   83.686249   89.000473   99.524307
H   49.777428   16.264357   94.220360
H   57.651253   92.529526   70.559952
H   26.467875   56.209274   70.147171
H   67.077217   28.894268   26.569725
H   80.024544   12.446016    0.611816
H    5.437691   29.262285   49.095379
H   35.816963   69.247108   53.069073
H   68.125961   98.788666   27.263346
H   12.230883   81.891785   71.435493
H   92.543144   77.458412   65.572250
H   24.278036   35.233078   31.243525
H   24.422649   68.037338   92.267052
H   25.268482   26.776226   26.805855
H   89.521317   24.178017   41.409428
H   68.168961   30.754873   56.012573
H   64.439034   36.309307   16.692219
H   74.143478   39.420643    1.695409
H    6.069282   27.321424    5.796660
H   47.891857   95.606216    0.833140
H   88.122093   64.678162   91.114868
H   56.173519   80.889687   92.782547
H   63.044640   18.254732   73.587250
H   62.081596   84.175552   24.914331
H   11.875532    4.246801   81.325356
H   30.395855    9.189003   84.797958
H   40.502216   29.605194   32.919090
H   20.875134   59.703457   80.920227
H   72.181305   47.732662   51.319866
H   41.107735   22.111629   85.783112
H   16.002251   26.224499   49.747166
H   33.514168   19.587276   25.601395
H    3.296434   65.411469   15.544280
H   75.330482    7.639846   91.060242
H   49.664074   63.802658   24.508057
H   94.069237   49.437393   69.007904
H   74.269379   87.985649   35.450199
H   93.119949   50.565193   83.682449
H   70.314079   23.898138   67.404541
H   50.748413   83.293304    5.436771
H   79.665680   86.577042   10.576856
H   92.264687   85.173325   97.769402
H   98.321754   14.361852   50.359524
H    7.044326    0.411811   53.981438
H   60.946465    1.558830   82.900787
H   68.980461   86.699577   57.977097
H   91.670418   62.566116   82.360947
H   47.698563   45.074821   71.537552
H   43.476654    6.547985   93.984818
H   53.241535   61.510067   16.621964
H   54.798401   42.621181   47.482407
H   53.301739   57.736504   97.596581
H   55.284508   24.609118   79.002693
H   42.793186   68.009331   50.801624
H   47.882061   62.888973   27.307812
H   45.984764   96.545692   46.902405
H   41.205246   71.445831   68.520897
H   66.602142   62.579502   97.417580
H   11.151439   89.253433   88.013557
H   74.352089   62.210049   50.944084
H   36.018414    5.643222   46.491428
H   78.637886   29.856831    1.603958
H   11.310941    2.359281   74.642807
H   15.714188   55.278725   61.712147
H   65.075455   43.660320   55.691532
H   59.866039   62.472916   81.383347
H   46.799587   35.809532   10.965815
H    9.956111    1.534630    0.639480
H   63.085472   54.781311   80.274994
H   54.476559   82.256180   82.006699
H   41.115688   22.781641   35.084827
H   67.500740   32.259243   37.210014
H   13.220096   21.736641   68.931152
H   58.446716   23.886744   10.345307
H   12.826837   62.752922   62.012100
H   73.987198   96.709724   52.783554
H   23.678513   33.343952   50.204334
H   94.793121   27.997852   36.731785
H   28.891621   10.059753   89.806519
H   78.352478    6.264112   35.971626
H   44.332008   63.478642   57.620869
H   38.696980   75.176895   88.932755
H   70.572502   73.273788   75.471603
H   68.974518   94.637848   96.739365
H    2.543723   47.947136   23.337593
H   34.873276   54.576794   89.125061
H    2.199727    9.251404   65.557907
H   74.246162   20.147486   68.514961
H   83.779358   55.023628   87.132660
H   80.450188   87.088684   40.487019
H   20.296688   30.170742   71.551018
H   63.195183   90.110764    7.119010
H   52.634956   25.318497   79.140099
H   86.208351   86.035606   78.178482
H    0.369978   36.670990   84.219460
H   33.197479    3.616713    0.439447
H   87.874809   69.469551   27.381033
H    5.083536   61.409752   67.149139
H   50.577358   57.985004   66.372635
H   50.352158   29.270847   78.922981
H   47.218433   86.369522   23.949312
H    5.277734   18.784914   59.020298
H   34.177586   65.646324   34.381393
H   83.075806   51.888023   21.642916
H   75.457535   10.513497   28.840246
H    9.813577   87.004585    5.255658
H   27.369190   96.352829   45.472004
H   11.206543   11.760193   75.646721
H    7.454954   33.197189   97.012459
