100
TIME:    8.985, STEP:  8985
H    9.703465   98.054482   90.919998
H   52.332199   91.747467   44.638332
H   34.214794   20.320663   17.870113
H   82.984711   62.468559   47.664787
H   14.685850   92.944626   22.085152
H   88.685669   91.473976   68.561371
H   82.065742   68.049355   93.091866
H   13.683014   65.917557   83.221001
H   32.759422   22.421295   34.513210
H   29.347536   45.396290   59.519814
H   64.492218   27.772236   74.268166
H   12.907631   74.062279   53.366722
H   70.806000   18.138229   32.203125
H   10.198333   77.381599   41.002995
H   89.737801   67.448341   18.812622
H   40.256454   25.868126   87.207092
H    1.586672   76.258064   91.328346
H   93.202988   57.628822   88.062088
H   85.210464   55.286762   36.726009
H   50.442394   15.007509   28.073145
H   31.094078   61.733070   13.376337
H   23.781046   56.011703   54.122528
H   65.779503   21.552702   75.278748
H   84.222061   44.314911   39.769939
H    8.229852   73.605560    2.894845
H    5.241255   61.225693   45.353756
H   87.292488   68.982925   78.244370
H   74.412872   75.829132   63.771423
H    6.540903   64.281456   32.445427
H   45.517342   68.460648   97.670776
H   69.673668   27.758369   98.514496
H   33.075581    4.267755   67.477623
H    3.247469   11.097244    7.236714
H   57.739899   50.301025   93.228355
H   57.343925   79.379433   71.708359
H   53.688023   89.175797   91.179237
H   41.577347   75.484627   16.448019
H   92.625893   94.521782   56.486610
H   65.814354   85.650169   73.599243
H   16.907225   71.038414   44.955994
H   21.190241   64.476822   54.027187
H   43.007095   76.837845   38.661037
H   88.612091   17.386536   50.468067
H    5.622728   63.462135   59.238964
H   77.273117   77.398964   24.982389
H   62.144585   34.285931   19.663874
H   11.937976   13.473028   11.715849
H   56.736019   87.912582   24.518024
H   27.670952   88.312782   86.058868
H   14.379131   67.492638   55.302418
H   42.884640    2.199345   48.144455
H   41.800442   29.997334   84.226601
H   95.240623   74.106812   81.038376
H   68.616302   60.610077   28.298790
H   25.396084   46.007607   76.763229
H    4.786566    3.082376   86.756180
H   65.860474   30.288292   10.535769
H   57.014099   28.365110   82.121605
H   98.906258   18.417006   21.706713
H   66.100151   18.404728    8.055809
H   26.481546   60.725391   13.855389
H   80.022697   44.310959   88.812111
H   84.052628   94.162376   17.342041
H   60.024891   90.708115   83.197021
H   88.953125   43.227139   32.303028
H   49.386086   95.602745   77.447685
H   66.685104   58.994724    0.857158
H   59.710358   31.399811   95.737564
H    4.711994    4.181526   96.708405
H   12.505675   99.938919   82.786575
H   36.712566   84.060081   54.373756
H   33.374557   53.263084   14.643094
H   21.153076   73.874718   31.374256
H   32.414158   80.758766   69.295479
H   95.288223   41.545162   82.550446
H   38.069092   83.427483   91.353012
H   82.812332   48.126408   50.094353
H   54.105282   63.219398   10.656867
H   92.377434   27.126942   17.929125
H   58.892387   19.563787   46.855400
H   86.711723   22.236307   17.004616
H   15.523594    2.742290   35.319046
H   86.195320   57.379185   85.628975
H   68.301643   81.025002   42.776028
H   14.836334   86.854782   76.758713
H   44.502918   39.087852   65.728867
H   67.242683   50.069466   51.982689
H    0.532514   86.086159    2.417479
H   42.149906   93.902290   54.705086
H   71.944839   39.609627   45.408127
H   91.725883   58.592869   23.208885
H   43.097912   71.237350    4.729490
H   61.409321   97.108727   13.828425
H   15.631037   58.282459   32.642269
H    1.244026   44.908543   22.551474
H   36.045776   40.923584    3.361860
H   49.415092   83.309578   20.452763
H   20.934183   31.038628   98.505272
H   80.688438   75.601601   92.449043
H   97.305145   48.063351   32.186504
