100
TIME:    4.739, STEP:  4739
H   96.843666   87.430946   94.807327
H   69.595741   61.664879   76.915588
H   61.213776   14.846686   67.718102
H   82.272034   37.404289   80.402840
H   52.724258   52.609253   37.210052
H   54.535999   96.073982   48.065571
H    4.600062   81.337860   61.048977
H   47.410240   98.586365   73.075279
H   37.134270   30.657959    1.783038
H   45.335365   84.428383   93.262787
H   59.444794   56.926456   83.264771
H   74.967445   61.232216   55.601677
H   41.661667   75.013359   54.131104
H   20.433731   90.468941   17.879663
H   38.144890   46.720612   22.972424
H   10.978794   97.238663   39.663025
H   43.025002   95.419434    4.798215
H    2.408375   64.232338   35.247509
H   19.079922   77.160965   13.031961
H   64.837486    5.178045   38.985756
H   83.057747   84.434906   28.619991
H   16.712891   50.375076   15.708618
H   22.471550   56.080238   96.760986
H   78.737030   93.518524   55.114441
H   60.090118   10.332542   71.538429
H   24.943285   86.559525   44.783901
H   53.430222   45.483067   93.995461
H   32.679043   77.640213   23.417528
H   14.216311   79.051262   33.156319
H   82.707916   73.549339   60.125404
H    2.563576   47.010509   34.444344
H   64.980568   21.579353   60.551079
H    4.165474   21.754358   24.723501
H   78.335312   39.421600   72.104774
H   62.972626    0.687899   13.301018
H   84.591034   56.607578    4.528395
H   34.331001   30.984253   81.880051
H   68.118645   72.228691   56.858494
H   45.038776   78.163017   85.068192
H   16.832956   68.534767   10.888594
H   11.374870   18.790869   53.994488
H    5.706322   24.546312   25.442453
H   52.060619   91.918320   43.776558
H   76.741913   92.188782   44.089821
H   45.582256   44.913818   61.639668
H   16.948109   53.305988    2.412402
H   78.758102   82.560448   70.956734
H   56.492504   44.180130   61.800392
H    3.558182   39.965382   55.435005
H   25.268696    2.861960   52.211472
H   43.183064   12.123505    3.383456
H   35.438286   23.995222   62.956818
H    7.172493   49.487061   27.634890
H   66.944633   29.883026   40.934715
H   63.468781   73.904305   40.654919
H   99.495773    7.548755   31.300064
H   96.684631   52.804939    6.705769
H   73.179825   29.347860   91.488754
H   64.030312   39.003922   47.667892
H   46.293018   92.042892   28.822151
H   58.640533   58.185062   44.905624
H   30.718393   83.832138   80.929947
H   95.790794   83.902023    8.503014
H   68.459328   67.578506   98.473465
H   20.420729   82.348328   36.891880
H   10.221340    6.683243   26.389990
H    7.349345   12.202876   95.860458
H   53.010658   88.565262   92.754204
H   93.092514    9.272003   63.012299
H   26.398809   86.500488   91.754150
H   71.547737   72.958328    5.299146
H   83.214691   94.246597    3.588734
H   97.999161   83.896004   40.241211
H   25.884586   49.486843   21.578014
H   90.657722   35.395817   60.646450
H   37.691483   11.297750   77.054276
H   97.225113   15.800957   74.860283
H   54.627163   40.848972   76.157799
H   88.765495   39.598789   70.558937
H   67.115662   50.858395   12.652075
H    3.606876   78.308792   63.227779
H   96.897514   75.176834   90.504906
H   17.626406   86.372131   81.262466
H   76.184830   17.685442   30.582550
H   21.579351   52.458603   88.359581
H   42.224590   83.126396   70.873718
H   83.661812   58.789017   49.517380
H   32.236115   25.878519   46.459686
H   54.031601   30.311769   89.431892
H   47.347698   14.299332   93.625748
H   17.962120   29.324581   33.540813
H   28.936907   51.897186   23.826094
H   89.232689   69.713890   85.478683
H    5.269526    0.687518   46.344608
H   74.656181   25.238724   24.983101
H   85.343536    8.594013   22.673653
H   86.443047   39.642025   64.644714
H   24.260801   56.587433   80.201378
H   82.958160   57.278263   48.096672
H   33.568386   57.020916   41.217556
