100
TIME:    0.848, STEP:   848
H   59.975502   44.255348   98.369644
H   77.681557   50.723194   31.491758
H   94.334259   34.912060   13.382957
H   81.618942   97.711510   93.681145
H   87.575592   40.728462   42.711937
H   14.866615    0.290716   62.726765
H    8.527475   18.598089   56.767475
H   53.235168   61.963665   30.333450
H   32.782539    4.761602   46.708969
H   51.666054   28.560295   40.897560
H   21.376129    0.363834   58.065071
H   23.474102   66.196571   32.566917
H   89.321136   10.402273   40.844543
H   13.093699    2.462688   21.772984
H   90.815895   94.277924   10.009148
H   67.427917   37.564960   62.648911
H   55.888603   38.076584   50.563362
H   19.265488   53.462463   70.147751
H   58.469009   13.926913    8.039660
H   69.694801   87.752686   74.040306
H   13.955017   71.796906   34.228073
H   43.659657   45.219200   47.050365
H   74.422005   87.725487    8.087137
H   40.253159   46.852177   44.095322
H   99.255363   18.921726   42.819321
H   42.770679    2.342650    9.690465
H   88.954834    7.225922   16.793783
H   60.988243   96.020966   94.803360
H   29.610123   26.029001   17.086929
H   33.508648   69.851852   50.801937
H   49.459660   98.087349   42.308098
H   19.300238   29.083031   20.760445
H   30.089401    6.438912   74.191490
H   13.932120   96.008675   36.025658
H   59.693459   94.817726   76.365234
H   46.285553   51.099926   17.726484
H   61.132389   73.480324   75.284431
H   28.941544   43.433376   82.282234
H   12.596798   62.405693   60.850990
H   83.321053   32.796078    4.752546
H   77.289566   85.278236   62.322498
H   55.407768   49.917625   42.640522
H   18.545156   68.585144   62.723869
H   25.208521   26.982672   63.646004
H   83.097466   98.434341   28.673464
H   67.121117   79.145561   86.643730
H   45.034168   71.486740   34.869331
H   56.284702    4.114397   21.047331
H   89.818840   62.216766   10.646302
H   43.675060   43.656498   24.354805
H   43.479923   87.774345   62.358051
H   46.343651   85.051086   18.391808
H   26.470003   26.925720   53.620316
H   57.052456   93.367592   69.236526
H   73.251236   32.844746    7.601946
H   94.627274   11.640738   63.758881
H   50.010323   65.078285   36.639381
H   62.914734   96.804222   91.712234
H   57.155884   74.598450   46.382359
H    3.060374   92.967346   39.490440
H   13.192926   39.134926   48.278305
H   68.813965   20.052292   56.987129
H   31.751869   49.326546   75.381935
H    1.269376   46.407394    4.115301
H   65.982780   93.115532   74.534401
H   49.251289    0.116586   96.326241
H   19.532084   77.679108    8.003304
H   21.788795   66.035141    6.741904
H   99.165123   88.854462    7.046457
H   47.564110   90.795067   99.947479
H   95.103645   37.704197   51.976994
H    4.046120   23.382210   18.707785
H   51.700851   76.360115   40.004993
H   11.526191   95.716125   52.809441
H    3.058207   29.850302   65.682060
H   45.707317   61.922874   38.869991
H   43.948048   53.046989    6.039165
H   71.820908   95.271858   61.273563
H    2.198024   51.018406   27.143959
H   57.938034   62.772049   47.865173
H   27.476589   38.054607   30.671070
H    4.948792   49.765640   15.868591
H   71.451073   21.410868   10.667622
H    8.503830   84.726051   85.974648
H   11.038607   95.840332   65.548378
H   31.774914   40.203167    0.670813
H   23.790731   41.696419   63.979000
H   69.606293   37.400917   86.926033
H   73.280952   46.956535   21.262321
H   91.362015   74.391037   54.528210
H   58.726200   19.221750   51.369946
H   41.030369   59.283684   49.680107
H   39.692741   53.038544   84.518242
H   29.190134   64.671715   83.994591
H   41.931248   73.771484   35.571770
H   63.962906   62.244377   23.648842
H   95.292435   16.345167   88.419617
H    9.978721   23.457886   42.468048
H   68.315300   40.505688   74.017891
H   91.905106   56.923122   16.011312
