100
TIME:    9.142, STEP:  9142
H   99.086334   83.656746   90.776260
H   47.996109    0.254375   54.538273
H   36.913471   31.615459   16.027275
H   83.011063   56.000359   39.058487
H   13.279016    5.528815   17.828716
H   86.251709   91.303886   84.109009
H   73.836754   78.650017    5.369488
H    1.343124   79.500778   68.806496
H   28.900063    7.325998   24.630487
H   25.058760   47.650578   65.667000
H   49.888458   34.089111   59.144554
H    6.914963   81.931923   42.191109
H   60.794662    8.635731   16.600994
H    2.424813   76.897682   52.951199
H   91.644722   53.424324   11.262794
H   33.943970   12.136291   74.174866
H   88.961678   86.643120    5.620679
H   96.561661   49.989159   82.619217
H   87.656403   61.873547   44.996922
H   46.212910   11.673391   38.762444
H   21.777473   46.102783    9.114872
H   38.832790   56.220123   40.752518
H   63.683327   20.276430   70.786942
H   69.635071   46.193085   28.109411
H    2.614813   61.155197    4.053802
H    4.500706   56.597336   30.578768
H   73.754784   62.456944   81.358688
H   61.165298   83.157364   68.960411
H    9.954911   78.525871   25.024330
H   51.537560   64.574936   10.151600
H   75.851997   41.836468   86.093155
H   42.988697   99.930298   52.943336
H   14.306595   99.610687   21.380514
H   64.373398   35.912872   86.614021
H   53.436653   67.492317   81.259735
H   67.335922    1.472642   90.685738
H   56.635078   69.735115   28.819052
H   86.136131   91.649422   67.565590
H   59.187168   82.229210   58.384598
H    2.119610   56.340599   57.309059
H   10.460814   69.864594   57.726040
H   29.776031   77.453522   46.675617
H   89.963226   18.328617   61.807781
H   95.598793   66.097572   74.589790
H   63.653992   71.206261   38.417965
H   60.119080   37.280468   20.301710
H   13.165437   22.011652   13.223598
H   56.745602   89.529633   34.232304
H   32.259781   75.309303   79.796692
H   17.674467   69.883476   44.324444
H   42.873859   87.042107   49.799835
H   49.430523   15.428909   73.920601
H   98.496284   75.017151   71.920609
H   64.979736   58.047951   35.226631
H   12.895088   59.766907   78.097595
H    4.982109    2.917227   81.411530
H   75.814316   25.758156   25.467840
H   45.323425   13.537958   78.077782
H   11.288795   25.051104    9.653700
H   55.740009   30.472713    3.590355
H   36.385944   53.424709    1.614939
H   74.450462   42.849625   81.709068
H   94.710785   83.449120    6.576080
H   70.805664   91.563354   78.935196
H   95.184158   30.687214   46.923557
H   39.741280   87.797783   86.730751
H   54.088882   64.422119    8.437420
H   48.865341   40.378670    3.243073
H   12.537083   92.900528   86.862366
H   15.694259    7.824436   82.453583
H   31.726097   73.377968   52.490791
H   20.446005   48.050194   26.151066
H   10.916401   66.108086   27.348400
H   28.958462   70.821693   59.966896
H    2.851010   41.776340   94.454330
H   41.781120   93.489128   80.788284
H   97.071121   34.537197   52.879272
H   61.480228   52.954124   19.327850
H   99.906898   26.665783   19.681528
H   51.192833   11.010965   33.329674
H   89.785316   23.860544   26.388298
H   27.304691    3.761480   22.184557
H   96.125206   60.004795    0.580141
H   79.103539   94.459694   28.436985
H    7.191879   77.032700   61.539276
H   40.889111   44.855331   76.631378
H   77.728355   38.654289   59.469032
H    3.057305   73.523476    0.789695
H   45.407963   85.160637   53.421028
H   58.064045   33.149811   51.019890
H   98.150963   67.070236   26.524437
H   54.714321   83.045410    7.720583
H   71.473358    1.818978   25.969477
H   30.804358   67.807480   43.228558
H   98.529556   30.844997   26.158693
H   49.013321   34.723694   95.252533
H   36.953026   92.319542   11.423187
H   20.631136   38.806530   95.352623
H   73.209282   76.279564   79.299431
H    7.057106   44.035099   17.061695
