100
TIME:    6.834, STEP:  6834
H   55.166580   95.310463   92.889297
H   11.737976   75.189186    9.010436
H   97.239532   65.569283   43.121784
H   82.623672   51.089996   65.569580
H   33.959534   20.532576   80.407837
H   22.041378   93.804314   55.540745
H   94.800705   22.801678   24.880854
H   82.747368   79.829468   80.718880
H   85.635109   29.232254   69.912025
H   88.098671   14.510912   75.296486
H   64.572998   41.223255   81.463707
H   95.004807   66.243744    6.477843
H    7.975021   48.323483   45.960869
H   16.702450   84.011574   77.310921
H   63.611763   59.586266   22.255932
H   26.743916   14.002497   65.759277
H   74.557442   33.986675   95.514320
H   47.209354   62.296600   62.621925
H   51.705578   65.050156   23.403919
H    8.399223   60.681896   81.623131
H   58.737473   75.871429   71.754448
H   17.562576   53.156219   37.300034
H   94.498451   39.041740   36.822556
H   84.081047   18.582735   99.520676
H   85.161690   44.190125   87.010536
H   15.384365   24.633926   47.773460
H   72.776192   58.397484   35.565289
H   55.907944   75.427727   92.667770
H   59.769676   69.125954   34.124481
H   63.038960   21.698601   26.671665
H   85.016579   34.873787   68.694679
H   97.260315   63.692043   66.606453
H   51.735493   68.474419   13.457646
H   66.854561   47.427353   83.846191
H   10.876591   42.240334   40.837898
H   66.705589   20.696991   97.940498
H   35.268723   54.259888   46.957737
H   81.530190   33.887508    4.698814
H   56.608707   32.513908   82.047134
H   19.507370   72.407745   75.720078
H   68.196152   90.674965    3.351564
H   24.281799   68.402679   28.848301
H   70.100677    4.483082   95.101585
H   42.969112   27.351095   48.927559
H   63.855782   62.255024   40.914371
H   89.910606   93.264938   10.925108
H   95.125290   96.493546   91.064079
H   56.604733   65.757965   91.427139
H   64.791634   66.457069   71.864578
H   69.220459   34.751286    5.698154
H   43.032337    9.864725   25.467056
H   37.259182   29.594841   25.426857
H   50.631077   61.634583    5.960112
H   18.433495   95.698013   33.380997
H   96.661240   57.504799   58.476612
H    2.107498    5.345018   59.981308
H   29.497896   92.354042    5.957692
H   17.182066   31.500902   37.528183
H   29.260124   27.525417   86.837746
H    8.046171   53.072948   69.235374
H   90.794243   60.757263   81.563309
H   56.365913   64.332169   86.137054
H   38.020679   40.943520   64.842560
H   12.317795   78.990784   41.597584
H    3.575012   15.023643   31.990099
H   81.524109    2.534994   50.263260
H   39.264267   84.631012   97.006973
H    8.294655    8.380683   92.907318
H   97.506569   58.738678   31.616116
H   68.838097   91.872002   87.342682
H    5.021399   30.416306   80.171577
H   10.481702   24.713047   56.980354
H   61.401688   80.269958   86.524475
H   79.764854   16.895966   97.101074
H   91.665886   38.384747   19.461712
H   87.217110   45.568508   36.088066
H   87.455658   34.300747   11.943491
H   53.054073    3.861255   91.855354
H   89.228630   33.445110   93.926933
H   64.379196   36.739784   32.165886
H   44.603767   99.982529   88.441589
H   54.113960   88.790268   15.272335
H   50.141815   21.406652   80.779160
H   20.318317   96.959007   39.236561
H   19.570234   21.414062   85.272789
H   94.004440   60.080513   16.357101
H   23.582201    6.465094   49.414894
H   65.938530   58.211239   24.719910
H   97.506943   13.666330   72.297493
H   62.122288   28.106548   68.513916
H    3.698104   42.447815   77.783371
H   83.945694    9.461688   63.737099
H   23.525913   32.573360   47.488289
H    7.746876   27.783655   87.605164
H   38.437386   37.581779   73.124481
H   58.381973   25.864149   14.464161
H   20.151594   59.868927   44.159943
H   25.086123   24.606026   41.688805
H   83.157158   66.313072   72.618736
H   63.695614    3.264035   39.399776
