100
TIME:    8.148, STEP:  8148
H   66.306145   74.810753   91.686295
H   75.448807   46.393017   91.862503
H   19.827578   60.103592   27.694672
H   82.844223   96.951897   93.542671
H   22.185976   25.855381   44.778900
H    1.662261   92.380760   85.669930
H   25.933887   11.529071   27.637379
H   79.469559   93.507896   60.072418
H   53.334480    2.895650   87.199661
H   52.209084   33.378208   26.747360
H   42.347916   94.095230   54.892296
H   44.855804   32.107555   12.945671
H   24.178932   68.797409   15.381506
H   51.640739   79.961464   77.306908
H   79.571602   42.213303   59.062340
H   73.909637   99.074974   56.685822
H   68.893318   20.898121   15.132939
H   75.305466   98.357475   17.076595
H   72.170654   20.171230   92.630859
H   72.993210   32.782253   71.086342
H   80.762856   45.058605   36.093258
H   43.537037   54.900574   25.400787
H   76.954659   28.356775   99.225510
H   61.992172   34.301971    1.931971
H   38.164375   39.983452   96.714760
H    9.188900   85.900436   24.119011
H   59.468697    3.773251   61.640377
H   45.036865   36.760792   36.101738
H   88.340996   88.342514   72.011864
H   13.424013   89.176193   31.130749
H   36.730412   52.702049   64.735252
H   80.227043   27.391430   44.962883
H   44.291340   72.336006   31.833143
H   22.374451   27.007027   28.488325
H   78.174416   42.752068   20.782545
H   80.929581   23.615614   93.810188
H   61.297359    6.137075   50.495815
H   27.220955    9.838118   97.423927
H    1.140792    3.887362   54.710472
H   95.743149   49.395264   79.102783
H   78.393661   35.759758   34.307827
H   13.544980   73.555542   95.930748
H   81.408905   12.365257   90.012184
H   59.065479   49.406982   77.403107
H   49.876633   10.415440   53.356895
H   72.948265   18.324158   16.263433
H    5.394201   67.954048    3.677927
H   56.684933   79.291748   72.729622
H    3.206784   57.631821   19.446430
H   96.809326   54.751209   13.823892
H   42.942112   83.006477   39.319275
H    1.120900    7.664560   39.171539
H   77.884010   69.253601   29.649054
H   88.003601   74.264511   91.365738
H   92.038643   72.657318   69.649445
H    3.744083    3.962818   15.249649
H   12.800517   54.439400   30.930153
H   19.338953    7.408963    3.680413
H   32.889828   83.050591   85.964355
H   21.335342   54.071415   31.862083
H   73.682602   99.652710   79.113441
H    9.729500   52.101639   26.682816
H   27.227886   51.278351   74.737640
H    2.547837   86.148651    5.919157
H   55.732590   10.076591   54.356857
H    0.804525   37.212029   27.957706
H   33.839661   30.060436   60.447735
H   17.527855   83.529839   55.724121
H   62.999176   64.323021   49.205231
H   95.506386   57.895718   84.561829
H   63.296665   41.011841   64.412239
H    2.299929   81.054100   53.290470
H   75.726151   15.278940   52.836941
H   50.837200   33.733143   19.027018
H   54.968262   40.312702   19.088339
H   18.279490   29.782795   47.671844
H    6.794851   20.570091   35.247360
H   14.786542   17.945736   64.424988
H   52.238144   29.585476    8.587961
H   99.940331   65.159294   18.963600
H   70.325752   13.577157   66.977753
H   52.715057   97.311539    5.342857
H   33.253304   43.381504    5.916750
H   10.719197    9.400970   19.223736
H   55.590530   39.214046   57.895775
H   63.768887    8.342666    7.605056
H   11.341355   10.926373   12.071419
H   87.071281   53.063713   11.095901
H   24.779194   40.504204   61.550667
H   45.946438   74.046402   15.488905
H   57.472431   13.400447    5.532869
H   81.168388    8.287107   88.779503
H    7.756044   71.999748   49.101929
H   34.738686    7.502561   76.205925
H   15.717087   19.881111    3.319575
H   66.912979   73.976501   46.594215
H   15.852602   35.275566   68.589714
H   22.549791   89.622826   15.309793
H   20.560905   71.987236   62.558071
H   45.314228   69.540451   12.816962
