100
TIME:    5.983, STEP:  5983
H   12.716732   73.350609   93.668411
H   35.238441   29.073721   55.353786
H   82.605179    4.345389   53.113918
H   82.480835   86.150116   12.213769
H   41.581863   52.321259    3.482298
H   35.240864   94.726265   71.263542
H   39.401127   65.339806   58.331470
H   49.634293    6.208120   58.855564
H    6.554375   11.052392   23.478003
H   11.343801    2.290567   41.976383
H   43.730942    6.981610   63.435692
H   27.486328   23.587269   67.052589
H   62.279251   99.785927   30.520683
H   58.838341   86.634590   12.548420
H   53.273491   35.601486   63.176868
H   60.960495   88.433876   36.400116
H   42.989906   77.699181   18.044439
H   29.010557    3.706188   92.124062
H   38.454151   29.347460   78.569199
H   31.324646   78.756142   23.683039
H    9.237007   60.591656   94.855171
H   35.976379   52.026505    9.770523
H    5.861063   45.962868   61.169861
H   63.152004    8.402315   62.724903
H   15.598195   11.677399   80.725685
H   19.272432   49.787849   27.803410
H   46.158409   93.770279   18.677999
H   27.713913   35.705910   64.541763
H   41.265724   91.916809   74.352722
H   30.407238   42.760643   59.019821
H   51.525253   58.561932   36.023018
H   43.527439   87.208206   45.387764
H   91.791374   30.737089   36.792847
H   30.898361   25.416374   19.696772
H   32.051056    6.650339   89.051559
H   92.729874   54.043114    0.615760
H   53.646004   85.424438   79.902382
H   16.704929   49.463291   44.644665
H   92.527191   51.056816   64.515129
H   99.662094   52.075390    8.764002
H   26.355633   61.471748   83.302589
H   95.999222   65.065475   85.402000
H   62.775921   99.378220   33.632713
H   97.309784   13.067343   65.721031
H   37.674885   95.834488   68.091782
H    0.895796   77.033401    7.467791
H   88.476852   50.214188   82.896370
H   56.558941   56.992935   38.772038
H   39.918221   36.937553    5.808759
H   51.359364   21.796438   65.203903
H   43.090771   92.023148   16.497509
H   95.895744    8.561424   81.289314
H   32.977657   56.700195   55.386677
H   38.138580    9.582599   95.830467
H   64.419609   82.926666   51.237347
H    1.047579    6.240188   88.951355
H   75.547340   16.910103   25.020653
H   80.549225   11.866915   59.447250
H   62.142105   91.565071   52.166756
H   64.201050   87.661163   93.439842
H   37.113300    0.335663   47.913525
H   86.569557   72.253159   24.641876
H   80.246834   99.013466   23.198181
H   53.882347   74.355057   64.704605
H   69.800003   82.992203   52.739933
H   33.800682   44.840355   99.944984
H    7.540895   55.208424   55.921707
H   67.079002   59.711582   52.224598
H   55.095448   19.886101   84.989349
H   51.598381   49.070419   89.134644
H   32.046333   88.317444   90.377968
H   80.641068   52.960892   94.668869
H   16.888474   22.362999    8.342072
H   98.502541   70.753929   47.663628
H   50.634678   37.170628   54.950211
H   67.102989   91.026909   93.349762
H   10.172210    7.978983   96.860344
H   13.072551   59.507874   44.859161
H   48.418530   35.944767   84.434731
H    6.113394   83.097054    5.480411
H   27.950212   91.178543   37.578449
H   90.253082   83.271408   86.462791
H   96.312111    7.175800   99.733521
H   61.769295   24.137489   16.962917
H   61.006813   74.645714   67.767654
H   13.590343   28.818905   57.260910
H   66.745766   68.339943    8.836050
H   52.252098   26.307589   33.543373
H   79.847031   61.048256   79.257576
H   37.361042   63.121220   38.095055
H   68.871666   96.496933   59.811810
H   20.980310   45.457825   47.525040
H   68.975327    7.037908   81.679153
H   25.501602   76.154854   30.223436
H   53.149651   13.808430   53.568729
H   88.092834   59.469330   58.419220
H   87.700188   11.032708   93.101273
H   26.728754   82.496948   58.770874
H   23.696564   62.640659   43.898643
H   10.839077   25.101768   21.378918
