100
TIME:    3.589, STEP:  3589
H   74.612946   92.891815   95.860184
H    1.435005   99.333832    4.393003
H   41.446396   32.110481   81.212212
H   82.079010   84.782829   43.438114
H   63.024704   60.431683   68.392151
H   72.369026   97.319862   34.176529
H   64.869087    3.683167   71.117409
H   37.797974   99.096786   78.664223
H   65.403465   41.225739   74.173058
H   76.763130   67.916084   48.232552
H   66.414993   10.653669   94.038994
H   18.857750    3.588800   37.459633
H   14.966477   44.567978   68.410820
H   77.374825   94.013557   30.364613
H   24.156986   49.443192   78.253181
H   57.218735   97.821892   35.123390
H   35.501198   19.355709    0.109177
H   77.835533   20.167778   75.119324
H    1.168607   28.916216   52.443523
H   95.826561   29.599928   60.688438
H   51.300369   98.920349   59.828888
H    6.461273   48.848434   13.641739
H   37.825706   65.433113   29.665642
H   85.584496   79.726105   40.523396
H    1.221636    1.532776   63.045387
H   30.200968   20.669771   52.773338
H   52.595943   93.286148   71.183571
H   29.712767   23.962082   85.404930
H   89.209808   74.714218   87.518806
H   38.610779    2.011693   68.703827
H   57.306644   43.887905   25.428688
H   92.368965   53.349297   67.012352
H   23.161440    5.894362   21.122419
H   29.745785   44.812263   20.552002
H   91.557678   87.619133   43.272766
H   84.608192   66.421112    8.298257
H   24.031139   73.098618   91.264580
H   15.652930   93.268272   75.706627
H   93.578888    3.220434   96.511848
H   25.150085   76.193573   20.408930
H   89.969452   79.330292   26.900984
H    9.062309   72.935776   71.415588
H   42.154995   85.022110   60.709782
H   50.176834   72.921509   31.647654
H   45.336201   90.288239   63.231258
H   31.784611   31.371479   97.740974
H   69.773727   20.019936   59.916046
H   56.431087   32.335495   90.644936
H   69.937790   35.208397    1.306266
H    1.149509   85.365562   32.644932
H   43.270802   23.148895   91.258667
H   79.551666   30.706528   38.451122
H   83.323082   42.818970   94.425575
H   93.581902   48.650192   90.189789
H   55.031906   73.116394   30.872633
H   98.056870    8.759130   70.448776
H   23.779161   85.987465   97.331108
H   58.811760   37.951157   21.111134
H   73.332909   90.412262   35.953518
H   22.182266    3.649603   61.530891
H   86.097267   11.667777   34.569027
H   71.533989   94.536179   32.963623
H   17.717093   62.376274   87.361961
H   89.489677   61.317772   29.699001
H   74.777260   74.197182   29.797430
H   80.867287   63.853004   58.393494
H   99.615829   72.441803   40.339825
H   32.449120   22.796217   37.777554
H   35.777710   91.903687   35.136906
H    3.099995   28.658464   94.175720
H    8.064793   51.204460   19.095737
H   78.037216   32.413345   19.391109
H   72.981873   40.779057   69.728264
H   51.205608   22.259987   89.908318
H   35.211842   33.755116   73.468422
H   10.501910   37.593864   54.434498
H   92.812752   15.475597   54.522602
H    0.598071   16.044203   12.646030
H   33.618202   42.976704   57.727348
H   23.514137   13.488621   11.725605
H   81.109634   66.411514   94.495361
H   10.610633   67.666458   86.667236
H   44.874989   67.164276   71.734436
H   97.067993   19.277454   35.617027
H   77.574585   24.390171   99.839233
H   68.693604   40.884506   91.014145
H    6.855932   42.403389   94.680588
H   13.727720   17.950119   58.418381
H   30.166519   94.342873   98.837410
H   49.023151   61.616455   52.514153
H   70.899261   67.225777    9.254922
H   43.844009   65.417534    1.912715
H   15.516156   35.205070   96.547325
H   94.117836   30.931641   68.805275
H   94.537621   28.248814   98.559227
H   90.358246   54.005318   82.072304
H   77.724548   73.646004   30.783159
H   20.040602   46.795868   98.608818
H   37.741631   52.321064   44.420982
H   62.136059   86.533913   52.000572
