100
TIME:    8.461, STEP:  8461
H   45.138908   46.106987   91.399734
H   66.804245   63.354984   11.597728
H   25.207743   82.622437   24.020733
H   82.896759   84.056694   76.387276
H   19.381269   50.943714   36.291946
H   96.809204   92.041664   16.666836
H    9.529754   32.665260   52.114384
H   54.868378   20.586298   31.332832
H   45.640343   72.801987   67.498657
H   43.660042   37.872425   39.003090
H   13.233414    6.689350   24.743502
H   32.908638   47.796719   90.666222
H    4.219728   49.852798   84.276062
H   36.142616   78.996712    1.124928
H   83.373299   14.254593   44.010773
H   61.324875   71.698936   30.704315
H   43.723793   41.599697   43.626564
H   81.996643   83.126808    6.227204
H   77.046951   33.302845    9.121181
H   64.558792   26.135393   92.396858
H   62.188988   13.897587   27.598520
H   73.544655   55.316086   98.746002
H   72.775658   25.812361   90.270508
H   32.908714   38.046356   78.687042
H   26.969967   15.160187   99.026344
H    7.712896   76.673203   94.664169
H   32.477127   90.762955   67.850082
H   18.627363   51.370579   46.448944
H   95.146797   16.740232   57.215813
H   25.425037   81.429520   56.013672
H   49.050106   80.769646   39.971687
H   99.990135   18.744480   15.986885
H   66.339493   49.435081   60.030655
H   35.600067   98.322632   15.302980
H   70.384758   19.053551   39.826847
H    8.138105   48.132805   92.826332
H   91.319084   94.674080   75.159081
H   14.284042    4.109901   19.510933
H   87.930199   97.067894   24.378391
H   66.260895   20.092596    3.728024
H   57.001953   46.498596   41.681973
H   87.166824   74.782974   11.910237
H   84.102570   14.242823   12.620777
H   39.080303   54.662971    8.007121
H   22.727047   98.067604   80.141655
H   68.907768   24.292965   17.535044
H    7.841208   84.975716    6.683745
H   56.704037   82.515549   92.096306
H   12.355370   31.710075    6.960337
H    3.380177   59.515270   91.939232
H   42.920620   52.788719   42.619492
H   16.333208   78.621323   18.624405
H   84.374596   71.068481   11.470400
H   80.753632   69.158966    5.177496
H   67.117470    0.085892   72.309677
H    4.133924    3.633573    4.594391
H   32.642509   45.407982   60.698967
H   96.032654   77.850060   95.618187
H   57.576977   96.275337   61.936089
H    0.681083   78.129120   22.959618
H   93.426590   85.095459   54.708988
H   98.620476   49.188278   12.520632
H   48.478436   29.919958   53.274292
H   24.041111   87.853683   97.421204
H   68.156555   85.078125   83.504791
H   81.576393   21.651817   46.464710
H    8.726339   40.880680   75.559006
H   95.906464    1.430372   70.687332
H   78.597748   41.832832   29.573479
H    1.863287   73.617386   83.897964
H   53.355419   19.713955   60.658302
H   76.524002   70.661522   76.233261
H   55.318298   99.796471   44.810871
H   43.947819   13.923588    0.430343
H   70.046097   40.773586   42.820286
H   25.679903   49.844254   26.611761
H   35.222488   93.478882   40.799461
H   29.490606   97.480568   81.714111
H   67.247246   28.666096   12.081009
H   84.590263   48.108971   91.998589
H   76.453362   16.815287   85.685349
H   76.202286   99.341339   79.156334
H   53.052216   48.616001   35.726139
H   32.252975   36.185646   90.635948
H   40.350311   19.634830   27.554016
H   56.564289   19.839695   29.340866
H   32.245914   88.168526   26.996422
H   92.105186   28.016167    7.850595
H   31.275749   23.077188   58.990730
H   18.272493   61.169777   26.677855
H   70.281670   30.300419   12.142966
H    4.327219   31.827019   94.744728
H   27.819782   81.389366   73.306702
H   64.987564   26.491932   97.311073
H   10.304684   91.844376   10.511635
H   92.765472   61.616211   30.427452
H   91.008232   53.238106   50.588966
H   21.945627    5.110935    9.025770
H    5.650598   73.338844   36.340214
H   64.755035   61.507961   82.665283
