100
TIME:    4.612, STEP:  4612
H    5.432035   99.077522   94.923599
H   73.103279   54.782547   68.908325
H   59.030769    5.710131   69.208321
H   82.250717   42.636528   87.363655
H   53.861786   42.429642   40.653641
H   56.505840   96.211571   35.487850
H   11.255968   72.762802   51.117413
H   57.392189   87.598663   84.735420
H   40.256172   42.868454    9.777462
H   48.806084   82.604851   88.290222
H   71.258026   51.816303   95.498520
H   79.814049   54.866325   64.641823
H   49.765823   82.693123   66.750488
H   26.721622   90.860390    8.214557
H   36.600410   58.064880   29.077187
H   16.085556    8.346687   50.205017
H   53.237556   87.018784   93.236900
H   99.692726   70.412193   39.650341
H   17.101845   71.833771    6.341449
H   68.259758    7.875071   30.338999
H   90.594109   97.077545   32.066963
H    4.537277   50.206482   26.523849
H   24.167183   57.113121    0.394515
H   90.536697   91.995361   64.546951
H   64.632477   20.404602   70.600502
H   25.522223   90.313171   56.726002
H   64.382042   50.762783   91.476234
H   43.394474   71.712280   19.219141
H   11.454610   67.528709   39.159828
H   77.838058   76.692558   50.029121
H   97.565468   35.622639   44.492180
H   56.961681   25.087860   72.308113
H   95.219948   31.045942   13.282338
H   72.969360   51.060425   77.455223
H   66.129410   10.288330    5.567962
H   73.551010   46.660511    4.927958
H   22.150152   35.635239   71.872910
H   73.368324   74.552193   47.896832
H   50.399883   80.930290   97.375580
H   28.794920   80.423576    0.896468
H   20.054089   14.433576   51.002422
H   17.120644   18.846563   19.476732
H   50.966694   91.156738   34.603668
H   84.851883   90.061005   31.671988
H   56.598057   49.924171   50.772114
H   18.586575   50.883656    1.896136
H   77.765915   75.653893   69.737816
H   56.485722   42.872070   53.942345
H   99.846054   50.483150   60.501556
H   22.605099    0.928938   61.093681
H   43.192753   24.384869    2.044632
H   29.266397   35.780025   71.293640
H    4.538085   48.750671   35.011089
H   69.886314   31.955574   35.330406
H   73.580566   62.773304   39.574558
H   99.336868    7.682346   35.623444
H   88.632797   56.469444   94.626930
H   82.636612   41.341423   94.759872
H   54.014450   33.637970   57.418266
H   54.673321   82.281860   32.434334
H   50.629395   64.090721   54.807152
H   35.225731   85.014236   86.675720
H   87.169228   92.568161   17.211784
H   59.738457   66.886688    1.921467
H   15.379853   92.491119   25.064798
H   18.022705   12.996569   18.880758
H   17.539122    7.812393   89.729050
H   61.783379   81.302139   86.682869
H   86.763443   18.397415   70.977051
H   23.825808   80.113281   92.021576
H   75.580437   81.599274    6.822672
H   93.686920   98.461456   94.290642
H    6.279969   90.178566   43.497795
H   28.680752   57.524143   29.123985
H   84.534065   35.214626   51.019131
H   34.688759    3.158154   85.600266
H   85.694809   26.808521   72.614296
H   48.660473   49.153698   69.144661
H   82.674782   39.971828   69.142357
H   73.343964   57.775608   23.593193
H    1.121694   76.994919   55.637157
H   87.369026   74.347427    1.124461
H    9.592981   84.248230   69.168243
H   67.446991    6.817607   42.181648
H   27.763567   60.402885    0.670836
H   45.147861   78.461952   62.054489
H   75.179771   68.022949   43.461548
H   30.192095   36.046211   47.780342
H   51.396103   37.382927   90.470589
H   58.576664   19.524788   89.085327
H   12.764762   22.466957   30.858805
H   19.539404   42.346252   21.406267
H   81.091713   65.902107   75.657578
H   92.994736   92.984451   37.782146
H   76.851784   36.614967   22.065159
H   74.853867   13.608969   29.233330
H   96.523827   32.353710   71.948532
H   23.794744   55.506104   82.234200
H   89.008179   56.730816   58.734589
H   25.680300   60.279438   53.452274
