100
TIME:    3.154, STEP:  3154
H    4.030503   32.783379   96.258438
H   13.535910   75.750534   76.953384
H   33.969170    0.815956   86.316505
H   82.005997    2.704523   67.283142
H   66.920959   25.564510   80.187119
H   79.112801   97.791130   91.096977
H   87.669151   74.311546   37.099846
H   71.988113   61.461971   18.603718
H   76.096596   83.049088    1.553186
H   88.651024   61.670128   31.197222
H    6.877625   93.150742   35.940395
H   35.461639   81.784500   68.423912
H   42.636192   70.885956   11.647358
H   98.913750   95.354347   97.260017
H   18.865181   88.299545   99.161537
H   74.708740   35.868805   71.231789
H   70.481209   90.583618   60.509411
H   68.542931   41.321724   90.199890
H   94.391991   10.666209   29.527300
H    7.546371   38.836544   31.071589
H   77.113892   42.227058   71.635956
H   64.757401   48.270966   50.686035
H   43.633583   68.970940   42.111404
H   26.000763   74.508972   72.830879
H   16.779205   36.031563   59.832802
H   32.197056   33.631084   93.547035
H   90.105881   11.368316   62.554173
H   66.415550    3.657749   71.027946
H   79.751266   35.247208    8.081484
H   21.931561   12.778666   34.122070
H   40.185024    4.881287   59.844505
H   64.902687   65.366997    7.282455
H   92.520721   37.720192   81.934181
H   11.364894   84.677528   38.877304
H    2.370529   20.502075   16.785530
H   46.782528   32.247799    9.798104
H   82.308388   89.028793   56.988155
H   33.630814    1.227192   45.009907
H   11.940171   12.697229   38.665878
H   66.120956   16.916098   86.184608
H   19.698149   64.402390   16.652571
H   48.157616   53.412872   50.978500
H   38.408085   82.413544   29.290684
H   77.955078   65.633453   89.115318
H   83.069160    7.451883   26.007479
H   37.396679   23.074512   95.975380
H   66.375290   96.362335   55.737694
H   56.407856   27.856668   63.729576
H   57.221970   71.234489   18.659212
H   92.029076   78.747902   63.068249
H   43.303989   65.145172   86.672104
H   58.410999   71.072296   67.008934
H   74.302620   40.296692   19.689499
H    3.656536   55.749077   70.993927
H   89.666763   34.992699   27.173845
H   97.512589    9.217123   85.257202
H   96.202431   98.539116   55.959114
H   91.203117   79.031097   32.316971
H   39.025711   72.032822   69.349937
H   50.886452   70.215790   73.903328
H   58.657539   31.896694   68.484146
H   86.972984   98.585098   52.647346
H   88.185509   92.059502   17.191238
H   59.620110   58.951477   41.510563
H   57.511684    8.938788   89.287102
H    7.590014   85.478218   32.672897
H   34.517647   57.402515   19.337542
H   62.497414   97.917175   16.982038
H   14.096149   23.159996   62.420650
H   94.285950    6.779037   95.091705
H   21.878765   80.801399   24.314529
H   13.905766   46.850067   87.542999
H    1.344292   62.294750   80.879387
H   60.782688   49.788734   15.756950
H   14.239093   33.134502   40.492954
H    0.217579    9.714064   83.705109
H   53.318295   53.179604   46.829655
H   80.160980   44.488590   88.623245
H   12.759498   44.254436   52.871964
H   44.847298   37.180141   49.201248
H   72.600266   61.911236   68.495987
H   77.972855   64.825577   23.042170
H   17.352293   59.902771   30.302708
H   67.139175   82.053436   75.347168
H   98.755081   51.600903   42.007439
H   78.703064   24.905285   60.806545
H   77.803246   74.031425   73.938171
H    6.726740   52.777466   62.941887
H   21.137760   18.562620    2.395936
H   87.482544   79.511795   36.965637
H   53.097290   43.738270    0.068437
H   11.656033   32.704399   93.622643
H   87.632202   22.152281   62.908104
H   52.074505    4.545573   39.476616
H    2.058361   67.214417   88.563042
H   54.429062   71.183357    4.540653
H   12.252889   48.682095   55.800255
H   18.444265   43.092102    5.569664
H   58.464134   50.445950   80.856407
H   35.117817   97.698311   93.904526
