100
TIME:    9.657, STEP:  9657
H   64.258453   36.428505   90.304764
H   33.772629   28.162624   87.009819
H   45.765820   68.667213    9.981318
H   83.097504   34.783012   10.828923
H    8.664244   46.808121    3.865669
H   78.267700   90.745949   35.110710
H   46.846073   13.424373   45.643154
H   60.865143   24.055370   21.519714
H   16.240379   57.810791   92.213509
H   10.990480   55.045216   85.831337
H    1.984354   54.811386    9.536146
H   87.260033    7.746038    5.533635
H   27.954926   77.462776   65.420746
H   76.924805   75.310310   92.141533
H   97.899910    7.421974   86.495140
H   13.235630   67.092392   31.425816
H   47.548561   20.706734   52.503159
H    7.576331   24.929115   64.765213
H   95.679703   83.476334   72.131561
H   32.339123    0.736648   73.826073
H   91.216156   94.832771   95.135422
H   88.206345   56.903793   96.895554
H   56.807335   16.089933   56.052673
H   21.782978   52.353973   89.861420
H   84.195175   20.311806    7.855243
H    2.071321   41.415146   82.115471
H   29.344715   41.047070   91.574448
H   17.712313    7.195821   85.981438
H   21.153484   25.250441    0.681213
H   71.285408   51.828812   51.092171
H   96.118492   88.017670   45.347992
H   75.506241   85.698959    5.267202
H   50.584282   61.930252   67.775780
H   86.132965   88.716331   64.917320
H   40.619804   28.499550   12.591956
H   12.103994   41.811634   89.066933
H    6.031321   50.875252   69.399185
H   64.848061   82.227348    3.909749
H   37.447247   71.007591    8.477612
H   53.611408    8.126306   97.826981
H   75.264069   87.537857   69.859215
H   86.374275   79.474350   72.963860
H   94.395294   21.418884   99.008629
H   62.719608   74.741676   24.943699
H   18.977240   50.880863   82.486282
H   53.474907   47.103313   22.393976
H   17.192112   50.021778   18.168970
H   56.777035   94.833969   66.097610
H   47.312309   32.657467   59.254250
H   28.483526   77.726036    8.314976
H   45.053532   37.489388   51.826233
H   74.459137   67.642029   40.114296
H    9.178143   78.003296   42.009224
H   53.054482   49.643524   57.952766
H   71.890083    4.897668   82.474655
H    5.623541    2.375497   63.879715
H    8.464663   10.897818   74.448479
H    6.976089   64.902611   64.813011
H   51.907223   46.813972   70.118233
H   21.756893   70.058182   88.942543
H   68.875397   29.476404   61.466618
H   56.172112   38.056076   58.408333
H   29.680096   48.316116   71.265244
H    6.168332   94.368759   64.955322
H   15.625072   89.554146   94.882622
H    8.105097   62.195518   17.182062
H   12.769150   82.228973   33.302868
H   13.290849   69.831490   27.863052
H   38.206009   55.895905   54.563702
H   26.153625   33.690266   81.361282
H   15.371021   38.335033   46.314186
H   78.036186   30.950584   63.898602
H   77.337784   40.635159   14.142567
H   17.622898   38.228672   29.366938
H   27.657625   42.534664   33.501728
H   53.957520   26.495495   46.135315
H   43.844673   89.962082   62.014519
H   85.675453   19.281410   47.770882
H   24.602064   25.153065   25.429857
H   25.936806   82.956398   88.962135
H   99.867485   29.188456   57.169167
H   65.948204    7.104686   79.098717
H   28.699602   68.617470   49.627499
H   14.535695   38.529984   81.399467
H   82.116119   44.816109   11.616363
H   29.034901   63.774132   12.394711
H   12.124117    1.209288   84.026146
H   11.339211   32.314674   95.453354
H   56.095219   56.485786   49.208992
H   12.530028   11.959969   69.429062
H   19.227560   94.880676   37.400291
H   92.819107   21.778074   17.531656
H    4.485905   17.272245   65.795219
H   78.359779   98.883224   81.357933
H   89.626129   84.714363   37.992287
H   91.550171   14.388100   68.652267
H   96.075432   21.873596   81.804962
H   19.637064   64.287033   85.011131
H   48.675743   78.503456   36.162815
H   39.044495   30.821232   67.451340
