100
TIME:    1.756, STEP:  1756
H   98.571686   60.987167   97.538345
H   52.423927   99.951805   88.768242
H    9.938910    0.238278    2.721942
H   81.771347   60.303062   43.911259
H   79.442719   13.508657   18.092281
H    0.786128   99.305687   52.648808
H   60.936855   79.911507   27.774345
H   81.868156   40.517941   46.964424
H   10.462166   17.461288   89.552971
H   26.852503   41.596916   76.453941
H   36.916183   36.898823   70.601929
H   88.818146   11.709745   67.935066
H   31.563587   55.466972   50.596390
H   68.134789   99.663368   90.872002
H    1.858811   13.174347   66.364792
H   30.920044   58.144440   87.278091
H   82.887695   98.124069   33.234543
H   38.669388    9.306377   38.669235
H   72.612236   52.021179   55.873981
H   45.207642   68.521347   35.889259
H   60.073105   81.402161    9.583839
H   30.724674   46.417656   69.735634
H   62.298897   80.340782   82.108505
H   55.890099   57.742191   76.658936
H   66.779289   46.906990   49.518204
H   38.607258   75.284286   24.582758
H   10.656563   69.484085   34.812183
H   84.375626   38.403851   24.815931
H   49.353470    8.410266   74.165428
H   68.326210   47.379074   22.985352
H   85.177803   79.514343   70.457642
H   76.632141    3.997898   36.702339
H   94.047562   40.004539   55.991302
H   52.296654   12.795729   97.774368
H   37.123695   26.180153   31.656509
H   25.232319   22.426531   14.603089
H   48.221931   40.228371   46.831181
H   91.413017   26.814327   46.356838
H   71.778549   43.022575   73.823273
H   97.798164   47.792751   76.193253
H   15.238556   16.436049   83.715134
H   73.801910   90.667519   85.300003
H   26.366293   74.030151   28.311398
H   67.226814   42.201225   52.425877
H    4.335934   62.605633    6.375486
H   55.432705   96.409798   90.301125
H   54.621815   20.466562   42.628120
H   56.333195   13.463045   77.229271
H   16.360929   87.017601   74.427902
H   62.718731   57.476841   60.846500
H   43.410648    0.112642   71.931839
H   90.471764    0.794963   58.785023
H   45.305847   32.190613    0.883356
H   36.027523   78.556618    9.304361
H    0.964103   12.444941   15.307047
H   95.763382   10.686476   32.848419
H    7.575394   38.878517   22.997778
H   95.301849   11.054887   68.325027
H   28.768860   12.963517   76.674927
H   43.140293   62.761105   13.664914
H   70.470474   96.910713   77.483696
H   36.587280   11.599852   15.900189
H   93.340866   87.406960   13.089862
H   63.622086   51.346695   79.466133
H    2.019799   20.594963   59.094875
H   93.471535   54.977058   50.013775
H   46.681686    9.073203   51.842358
H   59.066856   17.964703   50.149555
H   44.421799   23.611359   50.100121
H   65.957336   36.464645   98.035492
H   66.271431   75.922401   41.086979
H   29.177179   93.246704   85.188011
H   92.496735   31.447292   16.721699
H   91.544243   38.256416   98.844261
H   46.834892   31.142279   34.515118
H   67.174583   20.115347   77.772484
H   26.388037   74.349350   22.103979
H   14.480403   35.899986   11.416398
H   45.723328   48.358250   37.270287
H   13.408026   13.318007   69.640236
H   45.245602   47.448284   84.940941
H   73.078354   55.695572   39.942215
H   28.904842   36.565796   97.150299
H   70.968025   62.424786    3.038734
H   66.826813   39.045723   77.527985
H   10.874676   73.557045   63.725227
H   84.433983   75.677414    7.276000
H   84.223297   64.704987   77.489388
H   92.123726   96.401390   13.833094
H   11.084087   37.029160   86.990425
H   95.885262   68.249100   70.545242
H    8.213303   27.573492   66.979240
H   97.952934   80.246933   54.764175
H   16.951405   19.746603   45.216339
H   26.232281   92.437378   56.437370
H   38.960007   26.388231   76.749176
H   23.219250   68.453743   36.200195
H   13.312575   31.188965   27.940132
H   25.060608   44.419720   97.959793
H   48.294907   33.598263   28.558159
