100
TIME:    0.100, STEP:   100
H   10.560056   12.850743   99.054459
H   98.488503   10.166595   84.308502
H   81.482574   81.098351   22.165703
H   81.493393   28.530798   34.681755
H   94.275360   80.772964   62.993858
H   26.465660    1.104814   88.648766
H   47.728832   68.091270   98.272614
H   12.026495   97.253876   99.011726
H   51.169807   76.678757   93.792061
H   72.107765   17.822975   11.604624
H   90.953278   70.266251   30.117287
H   52.025158   28.702980   85.811241
H   36.901451   55.657272   15.189973
H   50.130634    4.768944   64.851326
H   81.719276   61.088860   45.966106
H   97.501862    2.990918   24.739086
H   16.026270   88.610268   82.459587
H    3.281718   89.837524   96.079391
H   46.821457   82.548645   68.629639
H   89.942482    3.435564   23.010218
H   58.342407   46.262550   54.527115
H   71.936440   44.231926   10.740446
H   84.408882   93.808922   29.489914
H    9.750492   37.881107   99.647232
H   26.006205   78.242409   37.296707
H   46.196156   24.634087   79.797722
H   53.456272   38.320316    1.950720
H   24.102943   61.106838   70.081558
H   13.345546   58.164669   52.444977
H    4.828483   88.364670   91.338676
H   20.035463   31.009775    1.498879
H   72.071442   49.747307   90.006599
H   77.402283   61.165688    6.805745
H   82.327309   64.558289   67.538536
H   78.286171   51.360977   30.817818
H   81.249626   92.341301   20.300245
H   89.391151    0.872148   16.344307
H   59.855209   57.123959   29.498178
H   46.225391   78.373283   32.542236
H   53.773968    2.821070   45.902168
H   28.407795   59.610081   44.694233
H   22.633743   16.344599    7.498473
H   12.103057   64.099609    8.696676
H   72.973923   14.447713   90.509048
H   47.980797   27.946407   64.664856
H   76.674278   65.084038   83.710442
H   37.135975   31.135105   28.477728
H   56.244755   96.411606   74.765381
H   67.950432   24.167324   40.485306
H   27.987104   32.271458   76.670303
H   43.532635   59.990425   54.478802
H    9.993142   54.460274   67.498306
H   10.953712   22.588562   97.061745
H   74.369141    5.570670   36.228474
H   32.798637   67.272217    1.254726
H   93.691360   12.427235   89.222565
H    2.592226   86.661354   65.498268
H   18.613619   67.442772   10.979170
H   98.164619   42.994263    3.805995
H   52.423019   35.474297   60.757820
H   66.008804   73.919418    6.599635
H   95.361938   27.014572   90.829559
H   81.016304    0.333827   26.697723
H   49.906647   42.338455   24.425756
H   36.290749   52.857990    4.873623
H   95.202339   37.301868   52.098644
H   79.545250   51.818638   71.890244
H   73.458046   23.256481   70.983177
H   61.888069   42.600960   53.961681
H   32.412590   53.174286    1.520480
H   18.857336   88.600273   60.948063
H   65.720543   48.206734   63.944401
H    0.471075   13.360859   59.185505
H   27.989883   43.051846   97.265312
H   66.991623   28.785986    8.978436
H   28.021986   13.981230   89.201004
H   76.034851   17.876816   92.801453
H   36.678513   44.181477   19.962566
H   66.347679   53.207134   18.803490
H   94.621262    3.507544   12.306015
H   12.838989   30.315584   85.965576
H   48.827183   44.880630   78.418640
H   24.123318    8.926463   39.424286
H   57.049858   20.718723   54.296303
H   47.461670   42.630173   38.058311
H   48.996616   12.722659   48.729046
H   73.833488   96.082100   28.311581
H   57.564972   97.287941   94.698677
H   57.758492   88.604668   27.382851
H   57.493629    5.172557   27.786654
H   28.114992   78.830597   35.573559
H   85.685616    3.027646   35.430260
H   91.700539   30.627817   26.651155
H   56.893944   19.297934   33.561451
H   54.862827   40.772564   18.385189
H    2.181161   91.782707   62.283791
H   54.664696   73.419212   31.437813
H    7.232529   17.089111   54.435181
H    3.948318   37.281353   36.675159
H   45.451855   76.134270   88.054428
