200
TIME:    0.560, STEP:   560
H   19.304121   61.412983   20.811378
H   30.816458   37.549797    2.887997
H   11.430747   83.144501   61.109917
H   28.629250   80.713997   36.131775
H   11.812621   91.839600   49.057671
H   79.208435   44.129692   56.077797
H    7.995452   55.077080   55.845211
H   10.059648    2.704520   13.713750
H    0.424056   82.708862   39.913021
H   99.596634   70.416466   83.450386
H   23.347345    1.430049    3.073967
H   32.101044   50.564102   27.989534
H   19.028179   97.627998   48.176445
H   89.278816   54.557034   57.685726
H    4.172236   74.407967   42.191238
H   19.972996   12.781551   47.419930
H   99.261124   22.705681   99.895546
H   28.963547   98.550339   37.823345
H   75.672394   18.116833   47.194527
H   91.074318   75.310143   25.065937
H   61.925407   92.732376   11.179930
H   82.905006   61.045815   58.243149
H   85.422691   60.214798   41.457985
H   15.386186   90.976662   90.582664
H   17.155380   25.573919   33.991894
H   18.396200   76.537796   96.387703
H    5.092710   65.217659   61.948074
H    1.854197   83.330116    1.573284
H   24.546375   46.803169   36.464584
H   78.588974   29.336733   87.556564
H   12.943707   64.818398   16.586048
H   26.106960   71.006332    1.481617
H   19.391365   15.871220   77.087845
H   85.835732   63.927040   43.883560
H   32.631992   76.578354   31.784952
H   22.608376   42.625809   83.145912
H   95.449036   67.522263   88.357277
H   17.086624   53.032902    0.779608
H   41.226990   34.941875   51.544670
H   87.013901   38.372570   51.196381
H   80.599525   90.275253   12.145831
H   29.267046   36.396683   30.342506
H   70.940140   80.430855   62.210606
H   36.568375   78.775887   30.193037
H   39.710663   86.058334   55.911766
H   36.556618    5.510555   46.168102
H   86.004425   10.534584    3.195115
H   82.325294   65.545723   36.143753
H   99.455856   16.608608   61.397045
H   50.665981   19.245596   92.174500
H   70.595932   66.445824   15.186868
H    8.905628   41.205791   70.421608
H   60.807053   85.268700   12.111586
H   17.644020   88.936630   86.441933
H   63.653976   69.268234   80.424232
H    1.203482   64.466759   89.126740
H    4.517245   17.956398   46.221973
H   70.904770   66.018356   99.527763
H   21.428843   80.659103   14.866048
H   35.702168   94.192299   61.078705
H   49.383141    9.133120   32.887138
H   95.687492   17.182940   51.519142
H   80.263229   31.835497   74.089020
H   31.879333   65.608879   10.812187
H   76.492416   80.849579   31.014929
H   26.186926   28.993376   38.615250
H   74.222023   16.412109   92.446449
H   95.549431   92.177467   93.607002
H   27.904932   10.177588   57.929512
H   43.394924   47.207378   50.965504
H   58.324783   82.126801   81.840912
H   23.146969   15.410600   42.524837
H   87.650040   31.195324   88.780426
H   18.290541    1.930869   69.888588
H   83.041519    6.051634   52.566330
H   61.402138    7.779214   60.786407
H   94.075043   41.863037   67.619209
H   14.702858   11.796965   37.025154
H   13.963421   43.950115   27.851055
H   63.454174   88.882278   79.085846
H   56.949642   24.693724   96.382904
H   40.707272   62.835606   77.964653
H    9.751239   17.176432   80.916924
H   14.238886   72.323463    4.281054
H   27.512955    2.707708   48.713593
H   33.682602   74.578033   21.121445
H   50.197258    3.450918    2.504954
H   72.670357    6.634314   23.511890
H   75.480301   72.836105   78.323242
H   21.841347    0.390441   51.344997
H   27.828705   37.655247   79.331146
H   81.826424   91.343079    5.350160
H   62.461109   13.253090   86.616058
H   45.678501   82.937065   77.891289
H   33.233330   52.597588   81.267418
H   56.020119   34.863838   14.015946
H   83.646416    3.210997   12.110765
H   98.097832   33.411072   51.623356
H   29.766930   66.572464   54.015282
H   72.768394    3.127110   27.328531
H   24.143461   89.274048   84.008156
H    2.471535   81.497879   64.099464
H   29.812696   25.475275   34.974483
H   37.252281   68.530304    2.870037
H   24.914545   23.267410   35.462292
H    0.091565   11.105768   28.908953
H   80.816994   34.070171   54.769974
H   62.865696   46.560753    6.367731
H   80.928886   36.050346   14.606220
H   14.646274   23.598719    7.103426
H   51.404747   93.286018    1.020994
H   98.843079   71.392273   94.156181
H   51.536179   83.988037   86.974922
H   62.140190   12.498543   66.702026
H   53.171547   95.293762   15.552554
H    0.979124   96.436226   93.370422
H   19.418201   12.948630   87.910568
H   39.147579   42.747211   27.582024
H   31.015051   69.727768   67.724228
H   79.227455   53.061581   61.280014
H   43.894417   23.885899   77.033989
H    4.481763   19.899464   57.601006
H   39.951241    8.326300   33.522045
H   99.362640   55.803581    3.851923
H   67.341179    1.029016   82.229637
H   59.445980   71.107544   19.352797
H   87.432533   50.684067   58.696365
H   68.429161   90.079735   37.705212
H   96.405708   40.900417   77.597786
H   83.255447   22.632622   71.953270
H   61.526436   73.759918   15.640347
H   69.417290   89.225204   16.873371
H   91.392830   98.163582   99.755524
H   85.229645   21.207485   53.645672
H   20.234379   95.584015   41.712296
H   53.835129    1.216160   78.967247
H   69.422501   87.379951   71.268837
H   93.947838   54.229496   78.142220
H   54.677490   48.808731   71.474403
H   43.621284   93.742699   86.565887
H   66.459946   53.658264   25.246826
H   42.506851   50.733727   53.706608
H   44.718636   62.650883   88.590790
H   43.049995   14.944267   83.427162
H   55.343441   59.154282   59.532413
H   57.664986   67.488876   14.520241
H   52.299614   95.376427   44.990635
H   33.914650   61.507072   66.989037
H   73.739960   51.431755   94.763306
H   19.662590   92.168449   78.021835
H   64.940926   66.744522   48.928425
H   47.257828   98.255302   38.124252
H   91.041473   19.873257   92.231339
H   18.368973    8.487879   68.044807
H   26.301746   62.329967   66.542473
H   73.001610   44.322361   63.905930
H   62.660870   70.480362   84.544846
H   50.595627   31.525620   17.221081
H   97.735985    0.528590   90.737434
H   60.092030   43.887177   90.521347
H   57.099258   71.408897   74.907585
H   28.579554   21.397976   32.771759
H   78.993767   20.618031   37.098995
H   23.020773   29.580296   57.507965
H   55.890221   32.946518   12.968771
H   17.427002   54.257412   60.552555
H   69.389580   92.391182   55.614033
H   23.911755   45.491890   61.245136
H   98.421104   27.129560   36.101318
H   41.076225    8.044858   86.799835
H   73.251709    9.439361   35.949219
H   35.108253   53.561272   58.440781
H   43.855804   63.704212   81.420120
H   67.285507   66.883842   81.663589
H   56.564819   92.629318   84.185036
H   10.787160   49.389366   23.593752
H   32.130390   62.917488    0.294172
H    4.566092    9.506035   68.972000
H   67.417976   13.940515   65.392166
H   71.078362   57.887718   90.899162
H   75.575531   96.656700   34.279114
H   25.682135   30.496670   81.298294
H   50.901501   89.830597   12.406448
H   58.449631   25.812527   88.962746
H   89.661148   74.454987   77.078476
H    5.959510   38.923965   85.555763
H   42.494568   99.043282    6.355581
H   75.047516   80.779243   36.723701
H   97.351234   62.600407   70.200638
H   55.432663   56.532589   69.745987
H   63.107136   20.437187   77.016304
H   45.029625   93.625488   20.548460
H   11.208404   25.136940   65.136726
H   29.513018   76.302124   39.762257
H   73.913162   39.962124   20.769531
H   76.109390   11.168663   25.182217
H   11.588355   94.284996   14.267560
H   19.609564   91.046318   37.942055
H    7.646037   12.507280   63.705544
H    4.670181   24.151234   93.302994
