100
TIME:    3.393, STEP:  3393
H   87.867828   10.865913   96.039627
H    6.887284   88.707794   92.029465
H   38.077347   18.009964   83.512077
H   82.046112   92.857780   54.182285
H   64.780258   44.721416   73.706665
H   75.407600   97.532204   14.765886
H   75.142220   90.448860   55.789955
H   53.203186   82.139389   96.659401
H   70.221519   60.070282   86.509789
H   82.119514   65.101814   40.556862
H   84.646439    2.767398   12.918894
H   26.339043   93.764404   51.411354
H   27.434021   56.426193   87.892387
H   87.079720   94.617683   15.448383
H   21.772633   66.950882   87.673958
H   65.099289   14.965034   51.392921
H   51.262306    6.392145   82.266525
H   73.648521   29.699211   81.914246
H   98.115425   20.693224   42.118053
H    1.107857   33.761951   47.343834
H   62.931290   18.433182   65.148209
H   87.670563   48.588242   30.332962
H   40.442589   67.027168   35.273560
H    3.795046   77.375397   55.080738
H    8.231484   17.077057   61.597878
H   31.100428   26.509905   71.144432
H   69.497528    1.433052   67.295631
H   46.250072   14.813461   78.927025
H   84.948029   56.931381   96.784065
H   31.095184    6.863019   53.122162
H   49.592075   26.312681   40.935585
H   79.993355   58.764000   85.157066
H    9.355337   20.234158    3.465191
H   21.463726   62.774544   28.808640
H   96.429565    2.435235   31.338287
H   67.564064   51.023609    8.974908
H    5.232233   80.276352   75.820488
H   23.753319   96.854149   61.874767
H    1.851500    7.490438   15.505381
H   43.610600   94.541656    4.988016
H    3.364752   72.604156   22.283308
H   26.677666   64.140060   62.207153
H   40.466732   83.846756   46.553196
H   62.693008   69.637695   12.483851
H   62.336964   98.022247   46.459286
H   34.313267   27.633076   96.945442
H   68.242477    9.360253   58.033386
H   56.420620   30.317381   78.517555
H   64.207565   51.440544    9.125104
H   97.039848   82.383812   46.352909
H   43.285755   42.071548   89.192078
H   70.026215   48.894554   51.318707
H   79.258690   41.682495    5.808674
H   98.121819   51.848770   81.540619
H   70.637497   55.938385   29.206053
H   97.811630    8.965490   77.121078
H   11.354064   91.642921   78.689934
H   73.406487   56.460739   26.160221
H   57.874458   82.130951   51.001339
H   35.115646   88.584976   67.105598
H   73.733620   20.782574   49.850124
H   78.490410   96.360519   41.832611
H    4.410619   75.750786    0.802274
H   76.031425   60.251579   35.020992
H   66.998390   89.850624   11.544301
H   92.907936   73.596779   46.804443
H   15.341713   65.664825   30.877089
H   45.988121   11.586242   28.407621
H   26.008514    5.986977   47.430271
H   99.128967   18.800295   94.588440
H   14.288860   64.540092   21.447193
H   94.199081   38.918167    5.040873
H   85.761230   50.473484   74.752678
H   55.521221   34.663422    1.554199
H   25.762159   33.475483   58.610508
H    5.868073   25.031748   67.622498
H   75.017952   32.463669   51.056355
H   91.389633   28.860197    1.821396
H   24.219854   43.552418   55.539635
H   33.126320   24.163258   28.611130
H   77.275528   64.383804   82.780701
H   95.904419   66.386429    3.056522
H   32.473957   63.892426   53.066349
H   83.582825    2.505035   53.517998
H   87.117981   36.650639   18.838997
H   73.203613   33.684341   77.403366
H   93.765511   56.654182   85.334579
H   10.573256   33.642441   60.456558
H   26.098389    5.255806    0.440585
H   66.352692   69.679886   45.508385
H   62.878143   56.642651    5.115762
H   29.340635   50.677902   98.177559
H    2.952512   29.323812   81.390343
H   75.174599   19.042770   55.590225
H   97.926109   45.805851   94.055199
H   74.169464   61.745308   92.195900
H   93.282288   62.397900   42.055275
H   19.321333   45.127045    1.745481
H   47.078667   51.476185   60.838554
H   49.962322   91.564308   70.881958
