100
TIME:    4.355, STEP:  4355
H   22.811218   22.645538   95.158890
H   80.201210   40.855309   52.703285
H   54.613190   87.220497   72.223961
H   82.207581   53.224602    1.449851
H   56.163712   21.829958   47.622162
H   60.492054   96.489998   10.036028
H   24.725197   55.409153   31.019678
H   77.591881   65.363708    8.331661
H   46.573723   67.577881   25.954855
H   55.829506   78.914711   78.227631
H   95.163544   41.475285   20.254185
H   89.621742   41.984169   82.935661
H   66.165573   98.234062   92.287354
H   39.446510   91.652534   88.657196
H   33.474968   81.021393   41.431667
H   26.419712   30.824944   71.538025
H   73.903908   70.019043   69.841179
H   94.199059   82.916908   48.560261
H   13.098965   61.053009   92.801315
H   75.185143   13.332830   12.841227
H    5.844833   22.663151   39.041367
H   79.898438   49.865311   48.409790
H   27.598503   59.203285    7.747834
H   14.414848   88.913055   83.632935
H   73.824493   40.786644   68.702492
H   26.693773   97.909134   80.893669
H   86.542488   61.446934   86.378273
H   65.078552   59.716385   10.723496
H    5.865970   44.211422   51.308662
H   67.983307   83.053246   29.598175
H   87.451897   12.577138   64.825203
H   40.734478   32.187752   96.099907
H   77.118263   49.849525   90.129745
H   62.110703   74.613007   88.282509
H   72.517548   29.715630   89.917908
H   51.210178   26.531406    5.736525
H   97.500504   45.046860   51.622242
H   83.991692   79.254082   29.761814
H   61.248737   86.530205   22.280268
H   53.000565    4.482301   80.677124
H   37.617859    5.615997   44.947613
H   40.218552    7.311948    7.403244
H   48.753002   89.615585   16.040365
H    1.263335   85.755188    6.543938
H   78.891182   60.063232   28.780149
H   21.902210   45.981770    0.851365
H   75.758102   61.677635   67.271187
H   56.471996   40.225052   38.040627
H   92.332443   71.767853   70.753052
H   17.214985   97.018730   79.069557
H   43.212360   49.196556   99.335236
H   16.777372   59.628681   88.163971
H   99.207390   47.260498   49.938313
H   75.839165   36.149628   23.990097
H   94.042999   40.250118   37.388317
H   99.015305    7.952685   44.372330
H   72.338928   63.885017   70.184166
H    1.773538   65.611641    1.379510
H   33.746132   22.778481   77.148033
H   71.632767   62.529072   39.744026
H   34.417877   76.043480   74.845161
H   44.347160   87.406357   98.302994
H   69.722435   10.105439   34.835045
H   42.089706   65.486710    8.899792
H    5.178961   13.017010    1.130851
H   33.810463   25.772743    3.685276
H   38.159103   98.927338   77.321396
H   79.536049   66.604324   74.396782
H   73.955795   36.863800   87.094452
H   18.619024   67.187988   92.562744
H   83.741096   99.085281    9.905865
H   14.877789    6.990951   75.475243
H   23.037531    2.891651   50.087891
H   34.339489   73.787422   44.394341
H   72.142097   34.847965   31.537050
H   28.612383   86.687584    2.893893
H   62.361694   49.084423   68.069267
H   36.586147   65.959099   54.951469
H   70.349480   40.726719   66.275734
H   85.947693   71.772346   45.734032
H   96.093948   74.336136   40.276608
H   68.086967   72.669022   22.615294
H   93.336708   79.951202   44.692303
H   49.766487   84.825630   65.653976
H   40.277435   76.477592   25.583893
H   51.063457   69.022881   44.207703
H   58.015327   86.708939   31.206831
H   26.055883   56.622368   50.452850
H   46.062851   51.692513   92.572517
H   81.298355   30.099136   79.897232
H    2.247142    8.589718   25.431437
H    0.522368   23.019096   16.509283
H   64.617455   58.189980   55.783367
H   68.155899   77.396454   20.454306
H   81.294853   59.636185   16.160347
H   53.626740   23.756969   42.507637
H   16.923088   17.604916   86.728699
H   22.851622   53.317902   86.347862
H    1.251104   55.622990   80.260231
H    9.717606   66.874306   78.209595
