100
TIME:    4.630, STEP:  4630
H    4.214802   97.426826   94.907120
H   72.606148   55.757996   70.043213
H   59.340172    7.005076   68.997108
H   82.253738   41.894951   86.377083
H   53.700562   43.872421   40.165573
H   56.226650   96.192070   37.270519
H   10.312620   73.978165   52.525036
H   55.977425   89.155975   83.082802
H   39.813698   41.137833    8.644394
H   48.314171   82.863304   88.994995
H   69.583710   52.540577   93.764603
H   79.127129   55.768578   63.360542
H   48.617203   81.604652   64.961914
H   25.830425   90.804909    9.584414
H   36.819313   56.457031   28.211945
H   15.361763    6.772312   48.710876
H   51.790108   88.209427   94.875511
H    0.077541   69.536308   39.026318
H   17.382202   72.588806    7.289723
H   67.774712    7.492815   31.564524
H   89.525963   95.285675   31.578423
H    6.262955   50.230377   24.990982
H   23.926857   56.966728   99.879501
H   88.864304   92.211243   63.210106
H   63.988678   18.977066   70.733437
H   25.440168   89.781158   55.033421
H   62.829842   50.014477   91.833290
H   41.875751   72.552460   19.814188
H   11.846032   69.161827   38.308937
H   78.528275   76.247063   51.460091
H   98.273811   37.236668   43.068077
H   58.098217   24.590591   70.641762
H   96.487770   29.729025   14.903920
H   73.729889   49.410828   76.696892
H   65.681992    8.927639    6.663986
H   75.115738   48.070332    4.871327
H   23.876585   34.976059   73.291245
H   72.624275   74.222878   49.166988
H   49.640041   80.538078   95.631226
H   27.099524   78.738548    2.312677
H   18.823963   15.051145   51.426495
H   15.502850   19.654402   20.322268
H   51.121738   91.264679   35.903763
H   83.702438   90.362579   33.431984
H   55.036762   49.214043   52.312397
H   18.354351   51.226978    1.969311
H   77.906540   76.632774   69.910576
H   56.486683   43.057465   55.056084
H    0.372216   48.992443   59.783463
H   22.982616    1.202910   59.834785
H   43.191380   22.647038    2.234387
H   30.141115   34.109692   70.112061
H    4.911465   48.855042   33.965603
H   69.469383   31.661827   36.124718
H   72.147400   64.350838   39.727680
H   99.359390    7.663412   35.010681
H   89.774002   55.950066   96.338875
H   81.296280   39.641563   94.296249
H   55.434021   34.398499   56.036324
H   53.485561   83.665314   31.922371
H   51.764832   63.253689   53.403786
H   34.586876   84.846695   85.861359
H   88.391182   91.339890   15.977470
H   60.974556   66.984741    1.432713
H   16.094309   91.053558   26.741106
H   16.917000   12.101767   19.945059
H   16.094900    8.434670   90.598068
H   60.540001   82.331558   87.543373
H   87.660477   17.104050   69.848206
H   24.190485   81.018555   91.983673
H   75.008873   80.374573    6.606740
H   92.202667   97.864075   95.608452
H    5.106303   89.288124   43.036232
H   28.284420   56.384998   28.054466
H   85.401985   35.240307   52.383633
H   35.114342    4.311805   84.389023
H   87.329025   25.248394   72.932625
H   49.506145   47.976650   70.138649
H   83.538033   39.918957   69.343132
H   72.461212   56.795216   22.042473
H    1.473922   77.181137   56.712994
H   88.719521   74.464981   99.619286
H   10.731577   84.549255   70.882385
H   68.685425    8.357925   40.537682
H   26.887064   59.276924   98.925941
H   44.733540   79.123055   63.304459
H   76.381950   66.714203   44.319855
H   30.481791   34.605080   47.593163
H   51.769638   36.380699   90.323372
H   56.985157   18.784172   89.728851
H   13.501395   23.438904   31.238932
H   20.871359   43.699905   21.749247
H   82.245552   66.442360   77.049545
H   94.734421   94.076218   38.995724
H   76.540596   35.002586   22.478725
H   76.340591   12.898188   28.303612
H   95.095055   33.386700   70.913345
H   23.860800   55.659363   81.946083
H   88.150696   56.808407   57.226852
H   26.798296   59.817600   51.718220
