100
TIME:    2.527, STEP:  2527
H   46.431305   90.282616   96.832474
H   30.977196   41.754929   37.402332
H   23.191648   55.706360   93.673729
H   81.900757   28.538519    1.648901
H   72.536942   75.307709   97.188141
H   88.833138   98.470406   29.002874
H   20.530754   31.972801   88.067543
H   21.269081    7.220201   76.173698
H   91.509453   43.332703   41.021511
H    5.785177   52.667336    6.642881
H   65.199646   67.921875   96.336288
H   59.394142   50.356049   13.054567
H   82.519539    8.820398   73.965172
H   29.958900   97.286934   49.546642
H   11.237682   44.305176   29.301241
H   99.918472   90.708344   23.278666
H   20.900406   49.111549    3.430712
H   55.145607   71.812584   11.938023
H   84.623817   84.364044   96.495712
H   24.437370   52.149387   88.382576
H   14.320862    4.645872   88.656113
H    4.646301   47.438614    4.080885
H   52.004936   74.070290   60.050018
H   84.255814   66.989105   19.396400
H   39.203239   85.759491   55.206352
H   35.072018   52.311161   52.315491
H   44.172981   37.432636   50.111950
H   19.321264   74.391533   50.302097
H   66.117920   78.361305   37.718925
H   97.890465   28.297012   84.278099
H   15.508439   48.655804    9.451139
H   25.313362   82.693306   65.327019
H   48.356548   83.595207   25.449072
H   84.872627   42.138229   65.292511
H   17.957127   67.898285   78.604683
H   92.266891   82.993889   11.953130
H   22.171524   11.991423    7.583026
H   59.543739   12.702778    0.765795
H   38.407814   26.356886   99.427551
H   25.178614   75.614464   36.853176
H   62.547108   42.890316    1.879958
H    4.508813   25.270775   21.521757
H   33.007366   78.653610   84.001091
H   17.993109   55.124557   27.810972
H   37.457150   32.188450   72.353127
H   45.485798   11.115437   93.430489
H   61.474392   62.264618   49.715103
H   56.374371   21.401159   24.934334
H   38.895882   23.163517   43.671539
H   78.883659   69.209343    6.923779
H   43.351826   25.678225   80.061127
H   27.939592   29.252094    8.168148
H   61.299721   36.661133   56.106468
H   18.174854   65.980339   43.325409
H   39.586143   80.035782   21.848280
H   96.728073    9.876194    6.601761
H   56.451374   16.631798   96.326073
H   37.890961   38.243927   48.466507
H   89.576286   45.541073   17.483694
H   92.263336   22.021330   91.736702
H   19.105703   61.052921   17.371532
H    9.225441    4.422020   81.016190
H   45.637943   34.831291   60.196213
H   16.563509   55.540749   58.535503
H   32.622456   59.017681   30.895445
H   46.107552   16.648232   95.601311
H   84.822304   35.727886   89.065323
H    5.808563   62.059082   87.007812
H   82.847740   68.212227    1.742453
H   81.580627   75.244698   96.411987
H   41.789452   23.462709   31.836788
H   65.603394   67.658859   41.636955
H   42.226913   93.311546   96.952385
H   74.579796   89.465881   53.021431
H   84.008080   32.239964   92.961288
H   85.397835   69.530876   25.894897
H   96.389893    7.522943   35.741199
H   50.703381   85.486580   53.997944
H   82.691238   46.096134   45.873512
H   75.596474   71.329453    3.217954
H   60.333607   55.424633   31.021091
H   30.927269   60.730789   75.471169
H   77.684799   49.436188   70.584167
H   24.004833   28.400240   32.616272
H   29.285995   90.818619    2.788203
H   93.130493    1.874470   17.265942
H   35.927345   19.619446   44.040482
H   96.634872    2.976821   69.465981
H    8.124611   53.472633    7.525782
H   42.917904    5.306114   14.552545
H   27.437897    9.882955   86.827347
H   65.263489   85.554008   81.673134
H   47.420887    3.351865   14.410681
H   91.471626   66.515388   97.201653
H   12.900131   23.376144   74.154747
H    2.641417   95.943428   36.926254
H   62.020920   12.699737   91.859261
H   16.143339   37.753571   15.602133
H   88.333122   47.743198   33.375336
H   96.176529   13.795223   54.299591
