100
TIME:    3.242, STEP:  3242
H   98.079498   24.713310   96.177872
H   11.087866   80.521408   82.504410
H   35.481804    7.146815   85.283913
H   82.020767   99.078789   62.459682
H   66.132751   32.618099   77.801010
H   77.748543   97.695793   99.811577
H   83.056725   80.253319   43.981560
H   65.071487   69.075272   10.523693
H   73.933388   74.588272   96.014107
H   86.246117   62.933678   34.643448
H   98.692093   96.691635   27.463957
H   32.102692   86.195511   62.159874
H   37.038841   65.561859    2.900992
H   94.556450   95.083107    3.956799
H   19.935707   80.438950   94.931801
H   71.170532   28.172028   63.927101
H   63.404793   96.404541   68.520401
H   70.422813   37.042305   87.149109
H   95.762962   14.358165   34.163227
H    5.175705   36.968075   37.063042
H   71.891846   33.466133   69.247162
H   73.194046   48.387787   43.192017
H   42.458656   68.255241   39.593704
H   17.824615   75.564392   66.295601
H   13.631953   29.052498   60.482704
H   31.793379   31.009192   85.298378
H   82.517868    7.710104   64.300331
H   58.990467    7.765289   73.936394
H   81.664719   43.231339    3.921826
H   25.305614   10.600520   41.117920
H   43.648708   12.772264   52.882225
H   70.459084   62.935532   99.135902
H   98.718964   31.281631   89.861916
H   15.083201   76.612831   35.169907
H    0.182927   13.849921   22.143867
H   54.433651   39.161068    9.495645
H   90.749062   85.806137   63.922237
H   29.993912   99.616737   51.219563
H    8.225556   10.780085   30.137999
H   57.832516    8.677697   93.107948
H   13.684202   67.422287   18.725813
H   40.248680   57.362640   55.112900
H   39.166080   82.941254   35.646847
H   72.335571   67.107819   97.719810
H   75.435493    3.979975   33.538021
H   36.261364   24.752979   96.332558
H   67.062790    1.148045   56.582970
H   56.412556   28.762705   69.174522
H   59.794052   63.945923   15.148826
H   93.874046   80.086647   56.913647
H   43.297276   56.649445   87.599960
H   62.687733   62.906799   61.231998
H   76.127449   40.806946   14.578568
H    1.618877   54.312981   74.877228
H   82.660172   42.704918   27.922106
H   97.622696    9.124472   82.261475
H    1.781489   95.999931   64.328621
H   84.650383   70.720673   30.050079
H   45.965836   75.750961   62.594303
H   45.079628   76.979340   71.400398
H   64.208565   27.804592   61.622807
H   83.849693   97.766006   48.665352
H   94.159508   86.054619   11.156815
H   65.663078   59.430176   39.121098
H   61.004910    1.910282   97.482048
H    2.184107   81.103462   37.876144
H   27.457127   60.444569   23.586412
H   56.418678    2.950060   21.188948
H   18.482246   16.836876   56.901180
H   96.069153   11.205299   94.906403
H   19.084118   74.813972   23.258774
H    6.649907   43.929535   93.985626
H   95.606552   57.942150   78.623528
H   58.845737   44.219582   10.526848
H   18.481852   33.260052   47.163853
H    2.298084   15.354048   77.783478
H   61.308468   45.551979   48.385929
H   84.295380   38.734135   93.482742
H   16.979292   43.995953   53.854202
H   40.531624   32.387112   41.619949
H   74.321701   62.821636   73.755630
H   84.575272   65.400284   15.683435
H   22.920103   61.371765   38.684299
H   73.193741   89.583710   67.309326
H   94.470291   46.096203   33.476799
H   76.678162   28.137676   66.917511
H   83.680565   67.633110   78.134338
H    8.143030   45.731934   62.026787
H   22.964268   13.663095    1.675967
H   79.702515   75.891678   40.111084
H   56.698608   48.489674    1.926872
H   18.167589   39.322258   95.299767
H   93.273193   24.792845   69.713280
H   60.580303    9.883488   45.409660
H    0.536727   59.331936   90.585258
H   61.697495   67.708260   99.995201
H    5.267949   53.732265   50.739342
H   18.767202   43.841370    4.161598
H   54.271996   50.825283   73.485924
H   40.583576   95.439766   85.427597
