100
TIME:    2.693, STEP:  2693
H   35.205231   75.059532   96.680496
H   26.359612   50.755798   47.873585
H   26.045027   67.649261   91.725883
H   81.928619   21.698896   92.550354
H   71.050095   88.613342   92.687073
H   86.259651   98.290565   45.442928
H   11.830826   43.182411    1.048967
H    8.221809   21.580996   60.932629
H   87.428856   27.372528   30.571877
H    1.249281   55.050850   13.143687
H   49.758728   74.601288   80.345718
H   53.057945   58.676819    1.238872
H   71.959633   98.776962   57.465981
H   21.739449   96.775276   62.179775
H   13.257084   29.477343   21.321787
H   93.244125   76.189423    9.498735
H    7.552085   60.090370   18.542765
H   58.693016   63.740044    6.182507
H   87.209969   91.327148    5.241323
H   19.965431   48.624775   99.684639
H    4.470241   88.120514   84.149979
H   20.560883   47.658981   89.944473
H   49.788597   72.720222   55.300720
H   68.832626   68.980011    7.067440
H   33.265984   72.593170   56.431038
H   34.310863   47.365559   36.756790
H   29.858059   30.531725   53.406063
H    5.314877   82.139854   55.789753
H   69.727386   93.422279   29.871992
H    4.255534   24.188553   97.474815
H   22.041010   63.541042   96.317360
H   35.794746   78.106117   49.959557
H   60.049953   71.449669   40.403664
H   91.886391   26.925278   58.299011
H   13.830470   55.350006   88.713722
H    6.699968   96.033562   11.382581
H   38.092827    5.911688   20.663023
H   52.683220    9.664494   12.479683
H   31.400383   22.740454   83.340729
H    9.543291   60.074440   49.914379
H   51.203251   48.585674    5.791680
H   89.589653   32.721474   29.320105
H   34.437222   79.649063   95.992119
H    7.393299   57.907013   44.041069
H   23.058149   25.639484   86.557961
H   43.344181   14.281635   94.104256
H   62.772533   71.292084   51.309601
H   56.383236   23.110273   35.205482
H   43.747765    9.415882   37.049118
H   82.363945   71.734703   95.313385
H   43.339161    9.651560   81.811401
H   36.006748   13.848537   97.270500
H   64.743004   37.623657   46.464760
H   14.331089   63.272263   50.650726
H   26.370430   94.587631   23.256605
H   96.935776    9.701736    0.950730
H   66.974907   11.841697   12.114233
H   25.530121   22.567062   44.190872
H    2.668914   52.554836    4.739744
H   81.308289   34.781109   87.015266
H   29.577589   53.333729    4.429095
H    3.334412    2.876598   73.505966
H   56.898212   23.511023   48.808029
H   27.962458   56.443748   54.028103
H   39.211948   45.758907   46.355316
H   35.909859    8.395851    5.416353
H   71.504005   41.466305   97.079605
H   94.341698   71.552612   94.943573
H   91.120384   56.284523   91.331825
H   84.944397   83.593330   96.062439
H   36.518364   12.167720   29.845249
H   51.916405   62.149673   53.791359
H   31.403543   85.099693   92.697014
H   70.927269   78.961700   43.155556
H   92.012230   32.476795    5.545242
H   89.321388   80.169304   14.725218
H   11.461546   93.135391   38.676899
H   58.502361   74.632851   63.165989
H   90.652328   45.608540   47.726372
H   67.455544   62.289082   88.916916
H   63.582127   57.141979   40.942631
H   43.383095   61.814896   61.590553
H   88.186447   52.207245   86.394897
H   35.424679   42.605072   17.453979
H   21.202690   80.436020   86.696358
H   89.310791    7.971962   28.793438
H   47.014107    7.549896   51.955978
H   99.307144   89.686447   67.738503
H   11.569757   44.229866    6.167641
H   28.240837   98.476273   20.486557
H   34.231293   18.846462   90.332962
H   77.545807   98.036430   84.836800
H   58.071980    8.325657   27.253376
H    7.515883   76.583900    8.394219
H   10.029655    8.506409   77.969383
H   16.352386   89.388130   28.352188
H   48.844467   22.226086   82.312538
H   16.752516   39.166962   12.946009
H   80.425224   48.458759   19.470657
H    6.485703    9.531303   38.311554
