100
TIME:    2.895, STEP:  2895
H   21.545177   56.535057   96.495560
H   20.740623   61.708664   60.615711
H   29.517210   82.182190   89.355614
H   81.962524   13.375982   81.478821
H   69.240799    4.804517   87.209869
H   83.128059   98.071724   65.448326
H    1.244246   56.823021   16.845711
H   92.345001   39.055958   42.385036
H   82.463310    7.950951   17.856720
H   95.729103   57.951271   21.054346
H   30.969177   82.729248   60.887562
H   45.347633   68.802094   86.860115
H   59.110214   86.555740   37.389580
H   11.737630   96.152657   77.551262
H   15.714428   11.434375   11.611674
H   85.122330   58.521820   92.730812
H   91.308388   73.451584   36.931622
H   63.009743   53.916832   99.178894
H   90.356972   99.800323   15.882929
H   14.523674   44.335789   13.437647
H   92.483322   68.011749   78.666611
H   39.926819   47.927139   72.742294
H   47.091606   71.077370   49.521454
H   50.064651   71.402679   92.065392
H   26.041767   56.572220   57.921318
H   33.384640   41.347416   17.823336
H   12.439350   22.134836   57.414562
H   88.270256   91.568535   62.467503
H   74.119629   11.749223   20.323874
H   12.000907   19.189102   13.532898
H   29.990969   81.655533   80.335762
H   48.549202   72.524117   31.259392
H   74.278168   56.670158   58.601418
H    0.421230    8.413290   49.788849
H    8.809058   40.080414    1.014965
H   24.263542   11.901766   10.688298
H   57.466469   98.513657   36.579891
H   44.334877    5.967411   26.733761
H   22.873268   18.339735   63.765198
H   90.516815   41.163139   65.807961
H   37.398586   55.516171   10.551084
H   71.435051   41.787987   38.810211
H   36.177166   80.860397   10.582875
H   94.494308   61.292892   63.790749
H    5.536184   17.670261    3.843528
H   40.738117   18.134480   94.924141
H   64.351852   82.277313   53.249893
H   56.394024   25.190039   47.704109
H   49.651863   92.686089   28.990797
H   86.598991   74.807732   81.184235
H   43.323750   90.149643   83.941254
H   45.823795   95.104568   84.010551
H   68.931816   38.794922   34.732079
H    9.653736   59.975769   59.564667
H   10.288282   12.294234   24.971579
H   97.188522    9.489445   94.074173
H   79.781761    6.012729   31.326134
H   10.488759    3.490296   38.987991
H   18.599663   61.089657   89.232582
H   67.977448   50.308071   81.269905
H   42.319862   43.940495   88.679001
H   96.165398    0.996025   64.367020
H   70.602943    9.733242   34.951645
H   41.834015   57.542580   48.543194
H   47.230488   29.624851   65.167885
H   23.500618   98.353920   17.359741
H   55.297401   48.449200    6.832366
H   80.388237   83.104980    4.600341
H    1.187242   41.770088   78.663673
H   89.037659   93.752510   95.637085
H   30.103920   98.423485   27.421810
H   35.261330   55.445724   68.581177
H   18.232210   75.106956   87.518791
H   66.482628   66.179504   31.150093
H    1.752048   32.764988   20.858727
H   94.095833   93.114861    1.133459
H   29.801855   75.628067   42.249256
H   67.992691   61.424999   74.320862
H    0.339876   45.015202   49.981056
H   57.549110   51.286900   71.514389
H   67.533768   59.231762   53.015903
H   58.540184   63.134109   44.699684
H    0.965651   55.579254    5.634367
H   49.321117   59.890472   99.003998
H   11.366561   67.801773   67.114662
H   84.662720   15.391769   42.820873
H   60.505226   92.862831   61.588089
H    2.558340   73.513748   65.636391
H   15.762037   32.982643    4.514963
H   10.381241   90.166458   27.707558
H   42.497955   29.753864   94.598831
H   92.491760   13.226910   88.686562
H   71.029739   14.380518   42.879234
H   27.040394   88.835945   22.014023
H    6.536748   90.412811   82.611290
H   33.036743   81.411201   17.918686
H   32.810471   33.818523   70.695442
H   17.493803   40.886871    9.713858
H   70.802361   49.329502    2.550444
H   19.031092    4.344482   18.854727
