100
TIME:    9.332, STEP:  9332
H   86.237213   66.232735   90.602310
H   42.748611   10.550550   66.518791
H   40.179386   45.285027   13.796730
H   83.042953   48.172600   28.643454
H   11.576479   20.757935   12.677382
H   83.306152   91.098045    2.924745
H   63.878124   91.478844   20.227734
H   86.409500   95.939072   51.361137
H   24.229500   89.058121   12.670687
H   19.868521   50.378696   73.106270
H   32.215118   41.734222   40.842094
H   99.662758   91.455696   28.666660
H   48.679031   97.135551   97.719406
H   93.017105   76.312050   67.410469
H   93.952461   36.452583    2.125944
H   26.304115   95.517990   58.403381
H   73.683052   99.211021   22.917128
H    0.626083   40.743706   76.032303
H   90.616455   69.843750   55.006306
H   41.094425    7.638472   51.698540
H   10.502424   27.187334    3.957470
H   57.048275   56.472351   24.572250
H   61.146553   18.731897   65.350998
H   51.981037   48.466034   13.998375
H   95.819321   46.086761    5.456275
H    3.604460   50.996140   12.698862
H   57.370987   54.558155   85.127609
H   45.134338   92.025925   75.240013
H   14.086591   95.764336   16.043427
H   58.823174   59.872482   25.255550
H   83.328957   58.873440   71.060959
H   54.985462   94.679901   35.354073
H   27.690567   85.709167   38.497215
H   72.401199   18.500458   78.609413
H   48.708107   53.106636   92.818726
H   83.852493   16.354822   90.088509
H   74.858673   62.777107   43.790363
H   78.282280   88.173317   80.974251
H   51.166615   78.089195   39.971970
H   84.223129   38.552742   72.257828
H   97.475906   76.384827   62.202358
H   13.763865   78.198608   56.374790
H   91.598358   19.468716   75.532219
H   83.468666   69.286659   93.167671
H   47.173660   63.711849   54.677959
H   57.667831   40.904430   21.073614
H   14.650899   32.345043   15.048264
H   56.757198   91.486572   45.988438
H   37.813141   59.573017   72.218262
H   21.662275   72.776848   31.039051
H   43.243458   68.728905   51.216263
H   58.664379   97.798355   61.448372
H    2.436893   76.118835   60.886063
H   60.579926   54.947289   43.611031
H   97.766701   76.417206   79.712433
H    5.218754    2.717365   74.943481
H   87.860367   20.275826   43.538368
H   31.175520   95.594521   73.183983
H   26.273880   33.079727   95.067497
H   43.202549   45.077282   98.186317
H   48.372562   44.589489   86.802940
H   67.706993   41.081131   73.113029
H    7.609704   70.484032   93.547211
H   83.851929   92.598358   73.777573
H    2.725180   15.511509   64.617195
H   28.069466   78.352287   97.965034
H   38.845047   70.991638   17.611118
H   35.740799   51.244759   12.326172
H   22.007090   79.248337   74.946777
H   19.553055   17.367365   82.050598
H   25.692200   60.450169   50.212044
H    4.800170   41.741600   40.077534
H   98.528046   56.710102   22.476345
H   24.776409   58.796566   48.677528
H   12.002965   42.056110    8.860109
H   46.273384    5.666007   68.002945
H   14.327363   18.091656   56.249557
H   70.406364   40.531181   29.821396
H    9.017795   26.107693   21.802271
H   41.874901    0.660444   16.960960
H   93.504951   25.826181   37.744347
H   41.561600    4.994896    6.289153
H    8.142866   63.182285   18.675236
H   92.175896   10.718483   11.083900
H   97.940628   65.146103   43.120850
H   36.515713   51.835083   89.825500
H   90.418022   24.839745   68.528938
H    6.112821   58.320229   98.820587
H   49.350834   74.581566   51.867073
H   41.264805   25.332199   57.811195
H    5.926768   77.330399   30.536888
H   68.772400   97.335419   11.340211
H   83.652771    7.520163   40.662468
H   48.783669   79.304672   56.626873
H   95.244797   13.825420   30.524118
H   64.706528   27.221106   85.438843
H   21.872032    3.223213    0.495852
H   20.264391   48.207088   91.537315
H   64.158073   77.100029   63.385830
H   18.858452   39.160145   98.758179
