100
TIME:    4.089, STEP:  4089
H   40.799469   47.039154   95.402420
H   87.547707   26.440348   35.930138
H   50.040909   68.083076   75.345207
H   82.162933   64.183464   16.030626
H   58.546249    0.508887   54.834717
H   64.617561   96.778175   83.693596
H   38.665806   37.446766   10.218133
H   98.498955   42.352009   32.755558
H   53.112511   93.152618   42.699223
H   63.098885   75.095345   67.812653
H   19.906204   30.772129   45.876064
H   99.772896   28.650888    1.870054
H   83.139633   14.320133   18.718582
H   52.617439   92.472420   68.415771
H   30.239521    4.781674   54.219036
H   37.115280   54.090202   93.618103
H   95.293983   52.425320   45.626152
H   88.516685   95.852425   57.783970
H    8.955906   49.893234   78.786148
H   82.353050   18.981718   94.730797
H   21.629654   49.145039   46.260010
H   54.396759   49.512192   71.062164
H   31.149986   61.366646   15.358663
H   39.129112   85.722809    3.387586
H   83.338409   61.882454   66.738014
H   27.906378    5.772440    5.908062
H    9.479418   72.503677   81.101784
H   87.523926   47.300400    1.930531
H    0.081700   20.078072   63.882942
H   57.783447   89.636681    8.452644
H   76.984154   88.724144   85.870277
H   23.939009   39.536278   20.724815
H   58.382061   69.311653   66.166367
H   50.871780   98.990387   99.488960
H   79.129395   49.823112   73.719086
H   28.086966    5.697157    6.573343
H   71.986649   54.788071   30.662405
H   94.987083   84.120628   10.991583
H   72.475983   92.326225   48.057564
H   78.054878   29.384521   59.749340
H   55.797394   96.488800   38.680767
H   64.125107   95.373825   94.906494
H   46.461788   88.020462   96.826988
H   18.248640   81.298584   80.535156
H    1.965586   70.558624    6.017173
H   25.333958   40.908222   99.770393
H   73.679977   47.211937   64.718178
H   56.457790   37.485336   21.582039
H   84.555710   93.799225   81.362854
H   11.636111   92.972069   97.675270
H   43.232655   74.876823   96.530579
H    3.850988   84.310837    5.625687
H   93.691429   45.718140   65.388100
H   82.000481   40.490555   12.252952
H   15.221745   16.938181   35.125515
H   98.682480    8.232702   53.427597
H   55.475483   71.560280   44.885429
H   21.580315   90.731789    8.231384
H   12.768026   11.538746   97.568047
H   89.187241   42.082676   47.309700
H   17.637774   88.414818   95.585823
H   53.788017   89.882248   10.338893
H   51.663280   28.257412   53.075462
H   23.823362   64.037704   16.122494
H   94.621315   34.262089   76.359718
H   50.151344   38.996437   87.957397
H   59.500473   89.730011   64.479233
H   97.910408   51.391800   61.680447
H   60.699127   55.976868    3.776649
H   13.229902   53.808510   93.122864
H   92.187538   17.184158   13.097126
H   36.810486   15.819402   56.000103
H   40.381470   16.048374   56.908768
H   40.196392   90.619423   60.199455
H   59.316914   34.468464   11.371730
H   22.323214   69.640465   20.792046
H   38.209579   72.139938   63.365070
H   24.088985   83.351219   40.260506
H   57.593575   41.508045   63.308250
H   98.992798   86.258339   68.650230
H   90.890518   71.584244   24.378626
H   48.128044   70.931839   44.858154
H   76.508766   75.510834   19.357037
H   31.467188   62.063667   89.950180
H   53.229187   93.114769   51.369690
H   57.186214   59.252274   25.735931
H   40.249794    6.049324   18.522963
H   21.774824   77.919090   53.218948
H   40.542831   66.503212   94.748055
H    4.815557   41.043793   70.387375
H   91.361298   94.226204   19.814005
H   80.841019    3.015438   11.440622
H   47.566277   50.208275   35.213177
H   42.445515   61.262230    2.519393
H   85.893517   83.461937   10.048257
H   31.656250   34.260445   56.246803
H   38.036438    2.340080    2.026527
H   21.875471   51.053070   90.605583
H   13.922661   54.476368    2.539421
H   93.195091   73.701271    3.833264
