100
TIME:    8.333, STEP:  8333
H   53.795158   57.845268   91.516922
H   70.339401   56.418461    3.526863
H   23.007547   73.413452   25.523174
H   82.875275   89.330132   83.402901
H   20.528242   40.683949   39.762650
H   98.793579   92.180336    3.990565
H   16.238014   24.021708   42.104618
H   64.928925    9.512914   43.085762
H   48.786827   85.108627   75.555298
H   47.156136   36.034534   33.991371
H   25.139664    1.539108   37.072891
H   37.794380   41.380703   99.777550
H   12.382025   57.599869   96.996765
H   42.480507   79.391243   91.384590
H   81.818611   25.688187   50.166046
H   66.471359   82.894249   41.329376
H   54.016762   33.133877   31.974218
H   79.260315   89.355324   10.664021
H   75.052811   27.932728    2.377929
H   68.008011   28.853655   83.682014
H   69.784691   26.640751   31.072641
H   61.273167   55.146164    9.646317
H   74.484642   26.852888   93.932617
H   44.802269   36.515106   88.192902
H   31.547604   25.311554   98.081032
H    8.316631   80.446640    6.709440
H   43.515213   96.083267   65.311020
H   29.427656   45.395969   42.217499
H   92.363594    5.127211   63.266594
H   20.517323   84.597488   45.837891
H   44.012020   69.291130   50.098640
H   91.908104   22.280613   27.836494
H   57.323147   58.800316   48.499405
H   30.191700   10.052958   20.695070
H   73.570305   28.744957   32.038761
H   97.011505   38.106438   93.228676
H   79.041740   99.361580   65.073143
H   19.574490    6.452431   10.478705
H   93.332542   99.856956   36.782387
H   78.317535   32.075508   93.657532
H   65.750000   42.106995   38.666348
H   97.953934   74.281021    5.375618
H   83.001007   13.475000    3.375416
H   47.253155   52.513557   95.492096
H   33.829994    3.117001   69.188530
H   70.560112   21.852047   17.015024
H    6.840395   78.014778    5.454591
H   56.696224   81.197189   84.176384
H    8.614159   42.310661   12.066538
H    0.693411   57.567028    0.888512
H   42.929409   65.146141   41.269882
H   10.112247   90.498276   27.027237
H   81.720299   70.326294   18.904482
H   83.718475   71.246857   99.529495
H   77.308876   88.869095   71.221786
H    3.974500    3.768216    8.951813
H   24.528252   49.101341   48.525139
H    5.563756   89.937950   98.915062
H   47.481274   90.867134   71.762466
H    9.127616   68.291229   26.600243
H   85.352371   91.048584   64.688545
H    3.163479   50.379684   18.312283
H   39.788006   38.654449   62.051636
H   15.251560   87.156418    0.896035
H   63.076302   95.300781   71.584869
H   89.439674   28.015099   38.896351
H   18.996359   36.455875   69.379318
H    4.748384   94.109978   64.568192
H   72.218842   51.030098   37.601799
H   99.263634   67.187698   84.169449
H   57.420849   28.423428   62.193459
H   87.065018   74.911522   66.850449
H   63.664001    6.127918   48.093098
H   46.765202   22.024662    8.035444
H   63.880081   40.585110   33.115208
H   22.653536   41.640152   35.224373
H   23.597134    4.557365   38.528954
H   23.477423    5.849712   74.643799
H   61.109032   29.042072   10.652542
H   90.867607   55.081627    3.025881
H   73.947502   15.491067   78.034958
H   66.596817   98.511261   89.865318
H   44.955536   46.475376   23.535709
H   23.446838   25.232218    2.327185
H   46.582733   27.641666   39.962044
H   59.510578   15.138034   20.452194
H   23.697084   97.475166   20.892906
H   90.046593   38.259140    9.177757
H   28.619011   30.203653   60.037605
H   29.589388   66.435928   22.102171
H   65.043388   23.389286    9.439841
H   94.856514   22.200554   92.305275
H   19.614704   77.549522   63.408264
H   52.617371   18.726307   88.680214
H   12.518063    3.309468    7.570473
H   82.193207   66.670898   37.038780
H    1.168357   45.892403   57.950294
H   22.192698   98.777412   11.595594
H   11.748057   72.786110   47.061893
H   56.804745   64.792374   94.995361
