100
TIME:    4.850, STEP:  4850
H   89.337074   77.251656   94.705704
H   66.530098   67.679626   83.914062
H   63.121758   22.832180   66.415627
H   82.290665   32.831230   74.318977
H   51.730042   61.506393   34.200302
H   52.814327   95.953728   59.058697
H   98.782539   88.832596   69.729324
H   38.685860    8.189185   62.884037
H   34.405678   19.985794   94.796257
H   42.301903   86.022179   97.608887
H   49.119843   61.392811   72.572281
H   70.731438   66.796104   47.700447
H   34.578506   68.301125   43.101562
H   14.937974   90.126808   26.327120
H   39.494789   36.805542   17.636765
H    6.515439   87.530228   30.449085
H   34.099068    2.761487   14.902983
H    4.781991   58.831860   31.399431
H   20.808792   81.817017   18.879549
H   61.846977    2.820803   46.543159
H   76.470848   73.385040   25.607277
H   27.354568   50.522430    6.255955
H   20.989540   55.177483   93.585251
H   68.423935   94.848358   46.870232
H   56.120026    1.529404   72.358192
H   24.437284   83.278778   34.346317
H   43.858131   40.868511   96.197304
H   23.313194   82.821320   27.086985
H   16.630028   89.122154   27.909489
H   86.964249   70.802116   68.949715
H    6.932312   56.963688   25.662376
H   71.989204   18.512863   50.275246
H   11.984346   13.633368   34.723259
H   83.025238   29.249084   67.428398
H   60.213547   92.297165   20.059830
H   94.240189   65.301476    4.179170
H   44.976913   26.918888   90.626450
H   63.530430   70.197914   64.691200
H   40.353085   75.744377   74.311340
H    6.378012   58.143280   19.621866
H    3.789038   22.599211   56.609600
H   95.730095   29.527983   30.656588
H   53.016727   92.583954   51.793808
H   69.653671   94.049927   54.942894
H   35.954273   40.534691   71.138084
H   15.515991   55.423145    2.863621
H   79.625290   88.596886   72.022087
H   56.498432   45.323395   68.668449
H    6.802619   30.772686   51.006760
H   27.596722    4.551451   44.448280
H   43.174595    1.406892    4.553608
H   40.832802   13.695253   55.669563
H    9.474938   50.130676   21.188147
H   64.373558   28.071587   45.832970
H   54.630920   83.633064   41.599171
H   99.634659    7.431993   27.521362
H    3.721723   49.602104   17.262947
H   64.914444   18.864969   88.629745
H   72.785179   43.693848   39.145912
H   38.968502    0.574237   25.665047
H   65.642395   53.023434   36.251534
H   26.779211   82.798965   75.908051
H    3.326385   76.327682    0.891393
H   76.081093   68.183167   95.460327
H   24.826532   73.483368   47.228687
H    3.402820    1.165293   32.953178
H   98.443451   16.040226    1.219489
H   45.343163   94.913345   98.060646
H   98.624222    1.296265   56.050240
H   28.647654   92.083008   91.520416
H   68.023094   65.406006    3.967559
H   74.061798   90.562744   11.715655
H   90.761871   78.404945   37.394905
H   23.441387   42.462116   14.983070
H   96.009895   35.554180   69.060883
H   40.315910   18.411821   69.584946
H    7.303145    6.180172   76.823311
H   59.842144   33.590511   82.287392
H   94.088875   39.272747   71.797050
H   61.672028   44.812641    3.089463
H    5.778973   79.457138   69.862099
H    5.225982   75.901749   81.223289
H   24.647745   88.228455   91.833008
H   83.821838   27.184278   20.444756
H   16.174250   45.515175   77.599342
H   39.669605   87.203194   78.581863
H   91.075249   50.718414   54.810272
H   34.022995   16.991964   45.305412
H   56.335068   24.131788   88.524055
H   37.533405    9.732201   97.594147
H   22.504692   35.318020   35.884930
H   37.149784   60.245560   25.940710
H   96.348030   73.045448   94.062485
H   15.998246    7.420581   53.828335
H   72.737190   15.295708   27.533428
H   94.511673    4.210955   16.940392
H   77.632286   46.012127   58.261063
H   24.668142   57.532532   78.424660
H   77.670349   57.756741   38.798965
H   40.462696   54.172916   30.524279
