100
TIME:    8.319, STEP:  8319
H   54.741936   59.129143   91.529739
H   70.726059   55.659779    2.644113
H   22.766901   72.406219   25.687504
H   82.872925   89.906914   84.170235
H   20.653692   39.561787   40.142258
H   99.010620   92.195503    2.604091
H   16.971756   23.076319   41.009800
H   66.029297    8.301751   44.371239
H   49.130974   86.454666   76.436493
H   47.538521   35.833515   33.443214
H   26.441910    0.975801   38.421387
H   38.328758   40.678951    0.774065
H   13.274782   58.447205   98.388092
H   43.173714   79.434395   90.319252
H   81.648567   26.938736   50.839279
H   67.034256   84.118736   42.491486
H   55.142555   32.207928   30.699743
H   78.961029   90.036568   11.149292
H   74.834702   27.345371    1.640389
H   68.385269   29.150965   82.728828
H   70.615471   28.034534   31.452623
H   59.930973   55.127579   10.838547
H   74.671562   26.966696   94.333160
H   46.103127   36.347626   89.232605
H   32.048286   26.421860   97.977638
H    8.382641   80.859360    8.026934
H   44.722504   96.665176   65.033310
H   30.608938   44.742496   41.754684
H   92.059181    3.857036   63.928398
H   19.980541   84.943985   44.724915
H   43.460979   68.035667   51.206276
H   91.024132   22.667377   29.132545
H   56.336956   59.824638   47.238174
H   29.600124   11.335951   21.284830
H   73.918724   29.804955   31.186941
H   95.794495   37.009804   93.272682
H   77.698906   99.874275   63.969997
H   20.153141    6.708645    9.490806
H   93.923424    0.161984   38.139107
H   79.636230   33.386192   92.556091
H   66.706818   41.626663   38.336514
H   99.133774   74.226120    4.660903
H   82.880524   13.391020    2.364204
H   48.147060   52.278465   94.123199
H   35.044334    3.669317   67.990532
H   70.740837   21.585072   16.958147
H    6.730954   77.253426    5.320142
H   56.695370   81.052994   83.310143
H    8.204964   43.470100   12.625029
H    0.399547   57.353939    1.867400
H   42.930370   66.497734   41.122269
H    9.431831   91.797318   27.946297
H   81.429985   70.245117   19.717585
H   84.042755   71.475220   98.911697
H   78.423561   87.642258   71.102798
H    3.957063    3.782943    9.428406
H   23.640755   49.505302   47.193626
H    6.606210   91.260063   99.275658
H   46.377056   90.275612   72.837204
H   10.051455   67.215210   26.998436
H   84.469254   91.699707   65.780159
H    3.660373   50.509995   18.945728
H   38.837490   39.609772   63.011658
H   14.290203   87.080154    1.276161
H   62.520561   96.418884   70.281128
H   90.299721   28.711082   38.068562
H   20.119642   35.971912   68.703415
H    5.715483   93.309319   63.898911
H   71.521149   52.036049   38.479897
H   98.979301   66.484451   84.199142
H   57.865505   29.376026   62.361366
H   88.217941   75.376366   65.824203
H   64.576813    6.820417   48.452091
H   47.073353   22.910717    8.867239
H   63.205673   40.564495   32.053715
H   22.322527   40.742828   36.166344
H   22.325596    5.769129   38.280617
H   22.819731    6.765087   73.870483
H   60.437721   29.083195   10.496304
H   91.554192   55.844261    4.231977
H   73.673424   15.346231   77.198196
H   65.546219   98.420471   91.036613
H   44.069962   46.241245   22.202381
H   22.483665   24.034166    3.605839
H   47.264404   28.517414   41.319191
H   59.832829   14.623790   19.479996
H   22.762056   98.493080   20.225334
H   89.821434   39.379486    9.322914
H   28.328430   30.983110   60.152107
H   30.827173   67.011856   21.601706
H   64.470451   22.633381    9.144187
H   93.820656   21.147659   92.038460
H   18.717274   77.129539   62.325623
H   51.264389   17.876942   87.736214
H   12.760151    4.563529    7.248784
H   81.036865   67.223755   37.761894
H    2.279594   45.088966   58.755440
H   22.219721   98.084633   11.876669
H   12.414962   72.725655   48.234577
H   55.935192   65.151688   96.343964
