100
TIME:    1.761, STEP:  1761
H   98.233551   60.528641   97.533768
H   52.284843    0.222896   89.083641
H   10.024855    0.597987    2.663243
H   81.772186   60.097069   43.637173
H   79.397934   13.909429   17.956726
H    0.708590   99.300270   53.143993
H   60.674824   80.249107   28.165352
H   81.475166   40.950489   46.505325
H   10.339256   16.980560   89.238258
H   26.715879   41.668709   76.649712
H   36.451096   37.100010   70.120285
H   88.627335   11.960361   67.579155
H   31.245537   55.164467   50.099449
H   67.887215   99.647957   91.252480
H    1.919634   12.727732   66.124466
H   30.719009   57.707085   86.863052
H   82.485703   98.454727   33.689751
H   38.776237    9.063219   38.495895
H   72.690132   52.230949   56.137386
H   45.072945   68.415146   36.229683
H   59.776398   80.904419    9.448132
H   31.204105   46.424255   69.309914
H   62.232140   80.300117   81.965454
H   55.425545   57.802158   76.287613
H   66.600456   46.510452   49.555092
H   38.584332   75.135284   24.114103
H   10.225407   69.276260   34.911404
H   83.953720   38.637234   24.981203
H   49.462189    8.863900   73.929070
H   68.517937   47.255325   23.382824
H   85.374489   79.962723   70.061981
H   76.947845    3.859763   36.239464
H   94.399734   39.638710   56.441742
H   52.507912   12.337517   97.563721
H   36.999413   25.802193   31.960960
H   25.667061   22.819311   14.585904
H   48.701477   40.045265   47.225163
H   91.206337   26.722813   46.709660
H   71.553787   42.915840   73.344070
H   97.327202   47.324650   76.586624
H   14.896873   16.607615   83.832932
H   73.352539   90.891899   85.534912
H   26.409361   74.060135   28.672554
H   66.907524   42.285034   52.914730
H    3.902222   62.408375    6.803362
H   55.368198   96.505165   90.321419
H   54.674610   20.736300   42.670845
H   56.333462   13.514524   77.538643
H   16.507071   86.603477   74.228470
H   62.823597   57.552944   60.496807
H   43.410267   99.629921   71.984558
H   90.714760    0.330997   58.456768
H   45.409569   32.219604    0.592961
H   35.911747   78.475060    9.524984
H    0.566047   12.883268   15.349476
H   95.769638   10.681221   32.678207
H    7.892366   38.734245   23.473318
H   94.929535   10.582694   68.196243
H   29.163185   13.174785   76.291092
H   42.810360   63.145435   13.522712
H   70.785873   96.678169   77.093834
H   36.409821   11.553303   15.673949
H   93.679993   87.066002   12.746835
H   63.965446   51.373894   79.330406
H    2.218261   20.195621   59.560535
H   93.164375   54.728493   50.309414
H   46.280533    9.246057   52.083752
H   58.721474   18.250671   50.388584
H   44.671013   23.252090   49.786514
H   66.058655   36.716148   98.024963
H   66.112663   75.582207   41.027012
H   28.764906   93.080765   85.554070
H   92.170731   31.199986   16.593487
H   91.434227   37.939987   98.547096
H   47.075943   31.149393   34.894146
H   67.292763   20.435801   77.436028
H   26.842005   73.916000   22.192423
H   14.715312   35.573029   11.692534
H   45.963005   48.343601   37.326057
H   13.162807   13.045694   69.209480
H   45.343449   47.500011   85.239784
H   73.453491   55.728226   39.524124
H   29.221195   36.649261   97.626526
H   71.311958   62.852642    2.582039
H   66.583359   38.732956   77.043289
H   10.759586   73.740685   64.072441
H   84.767921   75.313873    7.514423
H   84.303787   64.304672   77.437355
H   92.227486   96.122993   13.792191
H   10.642012   36.823433   87.169182
H   96.089882   68.519104   70.650833
H    8.583261   27.949526   67.074532
H   98.273750   80.396774   55.150986
H   17.434689   20.049891   45.553444
H   26.145821   91.989532   56.552269
H   39.372986   26.190802   76.490921
H   22.822388   68.740685   35.912643
H   13.330934   31.231537   27.860119
H   24.822437   44.441273   97.540939
H   48.605423   33.469822   28.076572
