100
TIME:    1.455, STEP:  1455
H   18.926680   88.590469   97.813919
H   60.796776   83.633247   69.781212
H    4.764869   78.582787    6.255641
H   81.720825   72.703880   60.411236
H   82.138748   89.382195   26.253212
H    5.453865   99.631783   22.838972
H   76.713005   59.587444    4.235710
H    5.526169   14.478485   74.601295
H   17.861320   46.401123    8.499434
H   35.077660   37.275002   64.668571
H   64.914474   24.787357   99.596878
H    0.305034   96.622520   89.360924
H   50.709099   73.677803   80.513481
H   83.038734    0.591277   67.967232
H   98.197777   40.059727   80.832413
H   43.022324   84.471428   12.263255
H    7.087659   78.218460    5.830085
H   32.237038   23.944199   49.104294
H   67.922890   39.393013   40.017010
H   53.316399   74.914658   15.395761
H   77.934875   11.367027   17.753452
H    1.862638   46.020370   95.363991
H   66.317680   82.788795   90.720184
H   83.856239   54.132175   99.012558
H   77.545036   70.779213   47.297539
H   39.987423   84.254211   52.794922
H   36.612366   81.995132   28.839125
H    9.773544   24.354183   14.866572
H   42.808594   81.101105   88.394218
H   56.784267   54.828751   99.057396
H   73.337318   52.521896   94.276398
H   57.626743   12.313771   64.567436
H   72.846756   62.027473   28.874846
H   39.578926   40.380592   10.454741
H   44.605522   48.933357   13.328560
H   99.060913   98.781143   15.637683
H   19.352783   51.251320   23.113470
H    3.854626   32.323505   25.116993
H   85.309219   49.448036    2.671423
H   26.149031   75.971489   52.511166
H   35.807838    6.107828   76.623703
H    0.854071   77.159813   71.158478
H   23.773603   72.225143    6.570008
H   86.448082   37.155930   22.996546
H   30.445396   74.482590   80.618240
H   59.315998   90.668678   89.079414
H   51.443531    4.228731   40.056099
H   56.317120   10.363989   58.605083
H    7.563223   11.946800   86.433731
H   56.405796   52.895428   81.899986
H   43.433613   29.173021   68.758148
H   75.843391   28.725580   78.544266
H   39.061806   30.445312   18.365086
H   42.997242   83.466423   96.022476
H   24.927193   86.058136   12.752823
H   95.386765   11.002811   43.095169
H   88.492599   47.563683   94.369957
H   17.715027   39.481178   76.077835
H    5.030479    0.245174   99.781784
H   63.002270   39.624393   22.225914
H   51.483440   10.908513    0.953317
H   47.270355   14.402092   29.520416
H   72.925446    7.932942   33.739601
H   42.951759   49.709328   87.636894
H   90.073463   44.635929   31.062178
H   11.962261   69.940712   32.216305
H   70.831131   98.666992   37.310436
H   79.858894    0.749477   35.760014
H   29.419106   45.239304   68.978615
H   59.859528   21.324976   98.669312
H   75.829247   96.402122   44.696995
H   53.995022    3.236441   63.151207
H   12.122799   46.335163   24.440060
H   98.167198   57.305450   16.733620
H   32.323639   30.713991   11.696590
H   60.058918    0.823931   98.027153
H   99.059135    0.437020   16.779627
H    0.338869   55.582840   94.793427
H   31.294748   49.240086   33.912880
H   28.169693   29.711199   95.571724
H   39.355213   44.334301   66.950569
H   50.493717   53.729813   65.111282
H    9.860229   31.541273   68.481445
H   50.261730   36.667828   30.531807
H   81.482742   57.874298    6.706535
H   17.803059   62.501637   42.822960
H   64.330879   97.562561   92.923019
H   79.377792   88.803909   80.618553
H   85.877388   13.160380   16.295528
H   37.696823   49.413902   76.229271
H   83.567116   51.996540   64.188675
H   85.942223    4.936258   61.243820
H   78.639809   71.226486   31.478170
H   87.858925    1.488610   24.922230
H   31.437180   19.399246   49.520470
H   14.098663   38.274101   92.296127
H   47.111069   51.179867   53.510818
H   12.207410   28.626129   32.756752
H   39.399071   43.122227   23.172764
H   29.601822   41.330402   57.548653
