100
TIME:    1.335, STEP:  1335
H   27.041456   99.595108   97.923782
H   64.134789   77.127510   62.211636
H    2.702450   69.949364    7.664752
H   81.700684   77.647728   66.988884
H   83.213577   79.763664   29.506996
H    7.314788   99.761787   10.954872
H   83.002678   51.484112   94.851509
H   14.957932    4.097135   85.618752
H   20.811150   57.938599   16.053221
H   38.357079   35.551979   59.969299
H   76.076584   19.958866   11.155867
H    4.885380   90.607506   97.902794
H   58.341850   80.937935   92.440971
H   88.980507    0.961236   58.835247
H   96.738426   50.777805   86.600235
H   47.847153   94.967033   22.224106
H   16.735229   70.282669   94.904320
H   29.672646   29.779770   53.264450
H   66.053383   34.358528   33.695293
H   56.549126   77.463486    7.225606
H   85.055847   23.313744   21.010441
H   90.356255   45.861984    5.581707
H   67.919853   83.764748   94.153412
H   95.005531   52.692966    7.924988
H   81.837029   80.297035   46.412224
H   40.537655   87.830261   64.042175
H   46.960571   86.982925   26.457838
H   19.898361   18.752987   10.900050
H   40.199341   70.213654   94.066826
H   52.182827   57.798721   89.517601
H   68.616859   41.760788    3.772087
H   50.049839   15.629125   75.676445
H   64.394608   70.807381   18.064299
H   34.508736   51.377907   15.510054
H   47.588310   58.004402    6.021736
H   88.627563   89.354874   16.050787
H    7.843234   55.645851   13.657960
H    8.814266   34.519855   16.649281
H   90.703506   52.009682   14.173011
H   37.451454   87.205009   43.069332
H   44.008217    1.990358   73.796555
H   11.639000   71.774681   65.520660
H   22.739973   71.505539   97.902229
H   94.111046   35.144516   11.263606
H   40.854095   79.217697   70.349686
H   60.864155   88.379860   88.592354
H   50.176441   97.755432   39.030708
H   56.310711    9.128485   51.180157
H    4.055724   21.884850   91.220108
H   53.889011   51.068951   90.293541
H   43.442768   40.758217   67.492889
H   70.011482   39.861004   86.421463
H   36.572487   29.749512   25.334538
H   45.775867   85.423820   90.727066
H   34.480721   75.538727   11.734528
H   95.236618   11.128925   47.180252
H   80.884567   51.026207   82.956993
H   26.651031   50.813576   79.168655
H   95.566216   95.174973    8.994274
H   70.921463   30.400457   25.639000
H   43.913860   16.488861   10.309317
H   51.529388   15.519264   34.950409
H   64.786407   16.116383   41.972023
H   34.711098   49.056557   90.894341
H   85.310890   54.220585   19.886793
H   19.333961   75.906288   25.120970
H   80.458817   94.517822   31.516941
H   88.148079   93.886642   30.023321
H   23.437965   53.861740   76.504250
H   57.428802   15.289335   98.921997
H   79.639671    4.567057   46.136204
H   63.889126    7.219213   54.364891
H   19.947353   52.270527   27.517147
H    0.807802   64.899643   23.865578
H   26.537991   30.543245    2.599521
H   57.221699   93.133446    6.101649
H   88.164360   10.837805   14.656374
H   94.701050   63.429825   88.166840
H   25.542490   49.591648   32.574379
H   34.054703   36.246986    5.909777
H   37.006886   43.092846   59.778332
H   41.489506   52.946121   75.145462
H    2.267389   29.538557   57.052006
H   42.006420   26.399271   41.492500
H   87.325638   65.380539   18.339043
H   20.565205   58.093372   34.489830
H   56.316353    6.287560   87.200974
H   77.446030   98.411453   81.865501
H   83.387154   19.841539   17.277431
H   48.306625   54.351341   71.939110
H   78.656227   45.517353   61.654491
H   77.063438   95.911232   58.957748
H   70.940224   67.630295   22.194265
H   76.261024   94.210060   16.831257
H   33.511890   30.148453   46.762901
H    4.187120   43.012871   98.494247
H   56.636215   44.293270   60.412064
H   11.766812   27.604401   34.676613
H   45.115623   42.604954   33.224339
H   22.149429   44.412983   69.106270
