100
TIME:    9.020, STEP:  9020
H    7.336589   94.844795   90.887955
H   51.365555   93.643906   46.845325
H   34.816410   22.838612   17.459290
H   82.990585   61.026604   45.746185
H   14.372225   95.750031   21.136265
H   88.143066   91.436058   72.027405
H   80.231255   70.412560   95.828911
H   10.932083   68.945663   80.007576
H   31.899055   19.056065   32.309956
H   28.391439   45.898838   60.890205
H   61.236603   29.180412   70.896660
H   11.571686   75.816658   50.875343
H   68.574173   16.019890   28.724949
H    8.465383   77.273720   43.666607
H   90.162910   64.321968   17.129539
H   38.849213   22.806908   84.301819
H   98.772163   78.573204   94.514534
H   93.951736   55.925713   86.848709
H   85.755737   56.755154   38.569843
H   49.499516   14.264235   30.456110
H   29.017128   58.248611   12.426376
H   27.136530   56.058167   51.141953
H   65.312202   21.268183   74.277390
H   80.970184   44.733612   37.170414
H    6.978087   70.830063    3.153212
H    5.076164   60.193893   42.059956
H   84.274529   67.528152   78.938644
H   71.459534   77.462814   64.928246
H    7.301969   67.456963   30.791016
H   46.859428   67.594406    0.453200
H   71.051003   30.896893   95.745407
H   35.285511    3.300810   64.237495
H    5.712879    8.536572   10.389791
H   59.218704   47.093475   91.753822
H   56.472878   76.729439   73.837646
H   56.730549   91.917114   91.069221
H   44.934166   74.202888   19.205893
H   91.179131   93.881447   58.956360
H   64.337151   84.887535   70.207443
H   13.610620   67.761971   47.709862
H   18.798330   65.677917   54.851772
H   40.057495   76.975098   40.447727
H   88.913300   17.596554   52.996029
H    3.387992   64.049843   62.660938
H   74.237000   76.018425   27.977518
H   61.693039   34.953503   19.806067
H   12.211614   15.376543   12.051971
H   56.738155   88.273071   26.683628
H   28.693939   85.413918   84.662842
H   15.113794   68.025627   52.855099
H   42.882236   98.820274   48.513489
H   43.501415   26.749596   81.929085
H   95.966408   74.309753   79.005753
H   67.805603   60.038902   29.843151
H   22.609238   49.074966   77.060699
H    4.830158    3.045559   85.564697
H   68.079483   29.278389   13.864617
H   54.407898   25.059694   81.220116
H    1.666731   19.895945   19.019735
H   63.790379   21.095043    7.060326
H   28.689474   59.097851   11.126564
H   78.780479   43.985184   87.228630
H   86.428650   91.774071   14.941986
H   62.428417   90.898773   82.246933
H   90.342209   40.431614   35.562382
H   47.235970   93.862785   79.517159
H   63.877029   60.204632    2.547033
H   57.292679   33.401497   97.410767
H    6.456460    1.666663   94.513428
H   13.216506    1.696840   82.712341
H   35.600925   81.678719   53.953987
H   30.492445   52.100975   17.208538
H   18.871048   72.143303   30.476772
H   31.643780   78.543495   67.215858
H   96.974243   41.596699   85.204178
H   38.896614   85.670525   88.997818
H   85.991043   45.096966   50.715195
H   55.749378   60.930962   12.589889
H   94.055977   27.024136   18.319788
H   57.175926   17.657068   43.840111
H   87.396919   22.598398   19.096519
H   18.149944    2.969498   32.391075
H   88.408989   57.964512   88.962029
H   70.709709   84.019997   39.579426
H   13.132156   84.665146   73.365845
H   43.697292   40.373596   68.159363
H   69.580254   47.524681   53.651619
H    1.095369   83.285561    2.054603
H   42.876225   91.953514   54.418831
H   68.850510   38.169540   46.659157
H   93.158226   60.482632   23.948021
H   45.687557   73.869720    5.396294
H   63.652897   98.158684   16.535028
H   19.013624   60.405872   35.002270
H    0.638830   41.773357   23.355631
H   38.936630   39.541443    1.554011
H   46.636925   85.318169   18.439766
H   20.866625   32.770382   97.802452
H   79.021111   75.752739   89.517601
H   99.479294   47.165333   28.814732
