100
TIME:    8.472, STEP:  8472
H   44.395012   45.098228   91.389664
H   66.500443   63.951092   12.291312
H   25.396822   83.413834   23.891617
H   82.898605   83.603508   75.784370
H   19.282701   51.825413   35.993683
H   96.638672   92.029747   17.756203
H    8.953263   33.408066   52.974598
H   54.003799   21.537905   30.322815
H   45.369942   71.744385   66.806290
H   43.359596   38.030369   39.433784
H   12.210220    7.131951   23.683928
H   32.488770   48.348095   89.883217
H    3.518282   49.187035   83.182877
H   35.597954   78.962807    1.962061
H   83.506905   13.272018   43.481804
H   60.882599   70.736839   29.791187
H   42.839241   42.327229   44.627937
H   82.231796   82.591545    5.845909
H   77.218323   33.764339    9.700671
H   64.262375   25.901793   93.145790
H   61.536232   12.802471   27.299963
H   74.599236   55.330688   97.809250
H   72.628792   25.722940   89.955795
H   31.886618   38.177948   77.870132
H   26.576576   14.287804   99.107582
H    7.661011   76.348923   93.629059
H   31.528563   90.305740   68.068283
H   17.699213   51.884022   46.812584
H   95.385979   17.738207   56.695824
H   25.846794   81.157272   56.888153
H   49.483067   81.756081   39.101402
H    0.684673   18.440594   14.968559
H   67.114273   48.630257   61.021622
H   36.064835   97.314545   14.839598
H   70.111000   18.220695   40.496136
H    9.094286   48.994446   92.791756
H   92.374168   94.271248   76.025841
H   13.829409    3.908588   20.287140
H   87.465935   96.828209   23.312439
H   65.224777   19.062815    4.593483
H   56.250168   46.875999   41.941128
H   86.239807   74.826111   12.471810
H   84.197235   14.308807   13.415300
H   38.377949   54.847687    9.082599
H   21.772881   97.633720   81.082939
H   68.765770   24.502731   17.579733
H    7.927219   85.573921    6.789373
H   56.704708   82.628845   92.776924
H   12.676880   30.799088    6.521523
H    3.611071   59.682697   91.170158
H   42.919865   51.726753   42.735474
H   16.867842   77.600647   17.902287
H   84.602699   71.132263   10.831533
H   80.498840   68.979538    5.662867
H   66.241646    1.049898   72.403168
H    4.147625    3.622002    4.219925
H   33.339828   45.090584   61.745155
H   95.213562   76.811256   95.334862
H   58.444576   96.740105   61.091568
H   99.955208   78.974564   22.646751
H   94.120468   84.583862   53.851376
H   98.230064   49.085892   12.022903
H   49.225269   29.169306   52.519989
H   24.796463   87.913605   97.122604
H   68.593124   84.199615   84.529160
H   80.900642   21.104973   47.115116
H    7.843761   41.260937   76.090073
H   95.146622    2.059498   71.213196
H   79.145935   41.042442   28.883545
H    2.086696   74.169937   83.874634
H   53.006046   18.965485   60.526375
H   75.618134   70.296288   77.039597
H   54.601089   99.252312   44.528805
H   43.705700   13.227402   99.776772
H   70.575989   40.789783   43.654316
H   25.939981   50.549294   25.871599
H   36.221512   92.526855   40.994583
H   30.007364   96.761345   82.321716
H   67.774788   28.633785   12.203768
H   84.050804   47.509758   91.050926
H   76.668709   16.929087   86.342804
H   77.027756   99.412674   78.236031
H   53.748024   48.799961   36.773754
H   33.009712   37.126930   89.631218
H   39.814713   18.946743   26.487728
H   56.311092   20.243744   30.104736
H   32.980579   87.368736   27.520943
H   92.282097   27.135937    7.736533
H   31.504063   22.464758   58.900764
H   17.299948   60.717178   27.071077
H   70.731834   30.894344   12.375266
H    5.141108   32.654327   94.954369
H   28.524906   81.719353   74.157349
H   66.050705   27.159290   98.052788
H   10.114471   90.859116   10.764391
H   93.674026   61.181824   29.859291
H   90.135094   53.869377   49.956352
H   21.924395    5.655209    8.804926
H    5.126591   73.386345   35.418819
H   65.438339   61.225727   81.605667
