100
TIME:    7.502, STEP:  7502
H    9.992847   34.051308   92.277725
H   93.290298   11.385413   51.131084
H    8.723467   13.627971   35.278370
H   82.735794   23.568462   28.952122
H   27.974604   74.075722   62.295105
H   11.680856   93.080620   21.693985
H   59.788807   67.909790   77.119324
H   30.243889   37.620022   19.384666
H   69.214394   65.006668   27.862301
H   69.853432   24.102602    1.451510
H    2.437264   68.101852   17.119238
H   69.512436   99.727325   58.928383
H   65.372078    7.900078   79.578209
H   83.627281   81.952614   28.145565
H   71.725288   99.917221   90.131378
H   99.883301   55.576660   10.309193
H   20.841011   78.169312   56.325008
H   61.494663   29.791534   39.468819
H   62.107403   93.070358   58.594807
H   90.400986   46.498516   27.103617
H   19.097397    9.368950   53.624249
H   81.604385   54.042999   80.413696
H   85.579689   33.608940   17.709017
H   22.013617   26.573946   49.910522
H   61.269600   91.213516   91.943886
H   12.234768    4.943848   84.911140
H   15.172701   30.627134   48.821117
H   99.545341    6.607688   14.748080
H   74.294518   29.731836    2.549235
H   88.653641    5.164928   79.776268
H   11.305598   94.774811   15.844643
H   39.438046   45.237850    4.766337
H   98.787117   19.600248   73.636360
H   95.078621   86.209236   55.703674
H   94.251472   91.663383   81.479782
H   24.773560   73.017548   95.840767
H   99.338821   29.796766   99.593719
H   53.919563   21.661160   51.835793
H   28.410130   17.960947   17.312790
H   56.588196    9.870845   28.275892
H   22.542810   13.595891   19.088346
H   67.986229   71.022247   62.948788
H   75.849457    8.490154   43.350483
H    0.316662   38.563255   14.241530
H    5.913258   35.901356   98.075996
H   81.287437    6.005049   13.638960
H    0.344248   32.823067   97.475395
H   56.645504   72.638153   32.758770
H   84.321175   11.135036   45.216820
H   83.245850   44.918674   58.993477
H   42.986469   45.374100   32.507965
H   69.725723   67.609695   81.577118
H   64.488106   65.507874   67.165627
H    2.965813   84.801834   62.858780
H   43.474838   16.044067   64.158997
H    2.939491    4.642347   37.241013
H   71.845123   73.079323   69.490059
H   67.441330   68.416023   20.320887
H   81.940239   55.754574   35.557411
H   63.962708    4.415928   50.235863
H   32.933025   29.694298   29.481117
H   32.657295   58.114517   55.913826
H   83.371681   95.359650   19.035797
H   58.189716   82.629639   23.459370
H   30.089325   61.673115   94.197197
H   40.487610   69.326714   89.760635
H   85.668701    7.726984   29.259409
H   62.151299   46.585136   24.841583
H   30.800705   10.740448   89.720032
H   82.386482   25.450815   85.931976
H   83.809624   84.965851   72.159981
H   55.495258    2.503449    5.940396
H   17.846720   47.232273   69.400452
H   65.056541   74.617065   57.410034
H   23.849798   39.361485   70.108398
H    3.006659   88.380760   91.140144
H   48.124714   76.483833   23.790155
H   84.437927   60.184101   28.746874
H   21.261961   31.482983    1.378655
H   31.619339    0.349440   74.617226
H   57.678993    6.893991   28.367188
H    4.241225   93.122238   59.386021
H   92.392937   32.578037   44.396118
H   66.273781   54.121700   78.225060
H   87.044785   79.625450   20.517931
H   78.633591   84.615570   62.744858
H   68.196404   57.895958   81.267616
H   76.681816    4.756025   17.793854
H   11.370969   76.473045   66.834114
H    3.060671    0.621473   92.395813
H   31.035480   78.517342   91.890305
H   33.370930   59.701370   76.467888
H   66.346161   52.617641   99.145760
H   72.304878   68.310509   32.647060
H   26.887733   77.746506   88.474945
H   13.556075   99.486877   79.960762
H   67.128868   98.204315    5.741609
H   23.796724   57.656979   28.279375
H   51.335014   69.197655   16.665752
H    5.190252   86.120224   75.049316
