100
TIME:    7.578, STEP:  7578
H    4.853344   27.081909   92.208145
H   91.191299   15.503829   55.923412
H   10.029833   19.095516   34.386005
H   82.748550   20.437069   24.786304
H   27.293589   80.167458   60.234375
H   10.502198   92.998283   29.220520
H   55.805927   73.041321   83.062622
H   24.270439   44.194759   12.406440
H   67.346169   57.699600   23.078381
H   67.777626   25.193850    4.427463
H   95.367935   71.159897    9.798544
H   66.612106    3.536710   53.518532
H   60.525826    3.300110   72.025291
H   79.864159   81.718361   33.929409
H   72.648384   93.128525   86.476105
H   96.827576   48.929443    4.000408
H   14.729530   83.196472   63.243587
H   63.119938   26.093353   36.834633
H   63.290844   96.258286   62.598560
H   88.353012   44.884838   32.278053
H   14.587448    1.802745   51.561779
H   88.890579   54.143890   73.941589
H   84.564980   32.990837   15.534381
H   14.952108   27.483126   44.265839
H   58.551338   85.186722   92.505165
H   11.876431    2.703659   77.759468
H    8.619127   27.467909   50.329266
H   93.132378   10.155112   17.260283
H   75.947044   36.627125   98.956749
H   91.567886    3.283802   85.818138
H   14.296817    1.590091    9.831764
H   44.236752   43.138271   97.730675
H    4.140474   14.039930   80.483040
H   98.289742   79.244270   52.501831
H   92.360054   85.909111   86.103378
H   31.379898   78.970123   95.601875
H    6.628166   27.013273    5.582129
H   50.778603   20.270138   57.198677
H   25.201908   16.305231    9.948029
H   49.430145    2.755847   34.255539
H   17.348948   16.203405   20.878874
H   61.581383   71.320282   66.828880
H   76.503510    8.946049   48.839771
H   95.463486   39.838890   21.672359
H   99.320808   32.903034    4.579617
H   80.306358    7.454417   13.947721
H    0.938358   36.956123   98.204826
H   56.650143   73.420929   37.461224
H   86.543098    4.840902   42.184868
H   84.841553   46.075443   53.679298
H   42.981251   38.036880   33.309296
H   73.419266   60.557468   76.588226
H   66.064095   65.948547   62.751930
H    1.206017   83.562149   66.212540
H   37.423691   22.704330   64.804932
H    3.034149    4.562403   34.653793
H   76.663544   70.886391   76.718269
H   61.782150   61.238838   18.363077
H   87.933876   58.966274   29.723007
H   58.947723   10.257710   48.074242
H   37.727093   26.159920   23.555794
H   29.959908   57.407120   52.474831
H   88.531044   90.173615   13.824249
H   63.408802   83.043640   21.395741
H   33.106018   55.602833    1.274700
H   35.818787   65.548515   94.254349
H   79.571167   10.354364   32.928814
H   56.901482   50.931572   28.474823
H   34.588760    5.279572   84.953796
H   83.930000   29.267862   85.770782
H   81.396355   79.794891   71.248482
H   49.237110   99.979881   11.511033
H   12.891169   43.473209   67.452209
H   63.383358   69.806763   52.894287
H   27.510580   39.473392   75.870789
H    4.803472   93.251366   86.026009
H   55.027058   69.906197   25.137980
H   88.008545   55.214565   32.944294
H   24.906218   31.259747    2.226820
H   27.892456   96.209404   68.069740
H   59.166847    7.680245   32.909607
H    9.944085   93.615097   53.028141
H   97.199760   33.849033   51.634186
H   71.502724   60.625118   71.283287
H   83.344284   74.870811   13.150794
H   76.884811   87.406891   68.022507
H   73.272270   52.370140   84.891579
H   77.904106   98.674500   17.005859
H   12.948407   72.241417   66.212532
H   96.341370   97.494888   95.112915
H   34.145710   82.621407   93.495285
H   38.994160   65.417374   77.916313
H   71.217926   54.898129    5.022952
H   79.650215   72.921349   37.771633
H   25.573540   70.939255   90.221405
H   19.833359   96.485657   76.035286
H   61.096275    2.565742    1.370675
H   23.650026   61.417202   26.753542
H   47.714531   69.525841   10.299755
H    9.910826   84.169662   67.728333
