200
TIME:    0.954, STEP:   954
H   31.410711   60.105381   27.548534
H   34.327698   43.301743   18.883327
H    3.172830    0.389806   80.516533
H   41.909866   85.319160   25.828773
H    7.629405    1.825512   43.392899
H   66.390930   33.435913   44.416092
H   13.703811   54.797523   63.471386
H   18.888968   19.716881   99.728729
H   16.424055   76.802109   30.301262
H   85.727036   64.895943   67.909462
H   37.080173    9.846395   15.524742
H   33.730286   61.080528   46.763229
H   28.698421   10.705133   32.028313
H   70.656761   56.219341   76.671501
H   85.150284   77.441002   41.221809
H    8.488890   96.548080   38.920517
H   17.805172   41.156418   80.776810
H   19.608181   17.492035   30.809015
H   88.781479    3.852966   52.994568
H   92.327812   69.899376    9.792392
H   66.653816   12.400112   93.129227
H   74.133553   76.105782   43.059937
H   73.624214   57.350098   32.004173
H   23.731541   94.568810   89.347206
H   34.280457   41.419952   19.932919
H   18.070051   94.023590   83.374809
H   12.722947   73.123390   77.789597
H   10.896962   99.583458    2.609991
H   41.140896   34.827339   34.157494
H   60.784271   39.892048   73.927444
H   12.429308   81.279152   17.067757
H   18.942204   80.240707   11.182396
H    9.871422   24.348845   81.900421
H   72.795784   64.356895   50.770264
H   13.723688   60.298302   28.787237
H    9.727549   33.644333   87.651817
H    6.757288   59.018341   91.315163
H   97.597946   63.224682   83.065323
H   26.644974   20.833897   60.302597
H   83.235382   36.752346   35.805756
H   80.716759   71.869629   25.223465
H   48.878067   28.134390   18.659008
H   63.846058   71.379845   76.840721
H   35.690628   97.911964   44.283672
H   53.172951   98.079254   70.130058
H   31.011950   95.256920   50.453129
H   93.429199   91.230865   11.832908
H   72.733208   65.539711   21.979568
H   14.693274    1.657202   61.681110
H   36.566425   21.023634   75.506332
H   61.223282   61.458900   99.572609
H   93.844994   47.987286   78.892464
H   71.435753   74.004082   17.256763
H   11.779831   97.251175   92.276543
H   46.976791   60.505798   67.681877
H   96.153252   54.759010    2.028599
H    3.392871   19.447365   41.995564
H   75.209335   75.177582   92.415611
H   13.115049   88.270248   24.395054
H   26.589535   91.979897   53.795212
H   48.107101    1.446105   21.375038
H    2.769037   18.116297   54.540154
H   91.117828   39.996750   60.796207
H   41.426323   66.170998   19.609192
H   82.826019   86.723267   47.126942
H   10.731050   44.299980   45.697342
H   59.504738    8.100965    0.586636
H   93.343040   93.073250    1.407648
H   41.919037   15.501933   52.942589
H   41.126911   54.074543   50.944462
H   58.151939   88.941360   92.379883
H   12.073685    5.054564   39.766850
H    0.154934   38.006878   75.587173
H   31.126833   93.270607   81.359413
H   87.839066   12.429576   34.040466
H   71.360954   93.869804   58.211784
H   92.409729   56.530724   62.045589
H    0.109867   18.971491   23.552345
H   16.963919   61.497276   19.108118
H   57.515858   86.684906   60.400665
H   73.671913   18.034723   90.533264
H   58.032246   55.749004   65.784416
H    8.214055   21.498281   69.388985
H    1.390666   85.207100   17.122143
H   13.482536    6.874157   37.547874
H   44.782188   60.792603   12.919765
H   67.855568    4.271927    3.408252
H   69.393837   91.970642   38.372391
H   87.540298   73.795013   79.742065
H   19.867920   18.051664   47.010372
H   11.312984   41.056515   77.578659
H   79.081963   94.799957   13.947208
H   81.179230    8.809498   75.394730
H   28.010675   68.781898   88.709816
H   43.216194   47.267982   97.677071
H   39.703651   43.672867   95.490837
H   88.991051   89.582207   29.079445
H   98.885262   41.536152   57.765511
H   20.839165   62.625610   55.411560
H   79.619026    9.528866   27.424723
H   41.722439    0.167739    2.561215
H   17.121592   87.458740   61.926140
H   37.979950   11.076001   40.479939
H   56.183952   69.257751   18.516930
H   24.392256   18.089607   48.236210
H   15.690443   91.815948   10.462110
H   87.863060   36.959034   50.524586
H   60.543575   61.688354   91.133003
H   90.941811   31.076950   33.658131
H   27.302958   18.105288    9.031763
H   56.588562   89.862206    1.298202
H   14.662539   81.299988   98.644112
H   44.693062   88.560135   78.404869
H   60.805534    4.004479   56.542915
H   40.023384   11.700120    1.737440
H   84.900108   84.911293   11.145094
H    3.218676   18.496714   92.503708
H   37.148602   62.140301   19.706352
H   45.977371   84.520203   48.252697
H   89.625145   60.925228   75.978989
H   48.006599   26.504108   64.123299
H   87.482590   10.565891   69.189896
H   49.450142   91.709061   45.210804
H   93.558090   41.625870   86.597710
H   55.551720   91.274513   69.198708
H   73.879562   81.888229   11.745907
H   77.639046   52.523727   43.480087
H   59.811012   93.169884   41.032833
H    1.254400   26.638538   68.618919
H    2.352437   20.765156   78.665627
H   77.431084   59.691925   30.697308
H   54.294197   93.132980   26.164860
H   90.106270   17.332045    2.687241
H   65.910202   31.309086   58.494320
H   39.698109   88.459839   23.607269
H   43.341248    0.710498   73.162697
H   70.074799   88.383949   90.882866
H   97.308525   41.927517   71.916832
H   64.975983   54.318695   71.381218
H   43.834709   74.847099   75.618103
H   85.965759   42.071709   37.974152
H   24.369076   62.705048   62.891384
H   32.052933   69.901588   75.301346
H   24.996071    0.682030   89.956154
H   73.863297   46.087280   72.416046
H   72.102058   74.276382   95.649773
H   61.618156   93.650993   42.169521
H   23.156242   46.840889   64.728539
H   84.272919   34.981522   90.846512
H   32.222321   96.470009   63.277496
H   51.054695   73.435837   45.954006
H   63.843330   87.352608   25.777184
H    9.345024    5.140942   78.400818
H   28.783947   17.531687   58.307552
H   41.925335   72.736435   73.669655
H   84.697884   45.299305   76.029037
H   66.785080   82.296875   89.210129
H   56.197273   25.204041   26.451698
H   79.703102   99.043777   76.125359
H   55.674740   27.810991    5.640995
H   60.969460   55.402046   64.431740
H   10.079992   19.356163   29.358467
H   95.953514    3.439648   36.935169
H   37.483017   41.154827   40.651924
H   52.117714   46.315620   16.840017
H   24.215260   41.720966   58.398769
H   62.605080   86.018501   59.790844
H   24.255939   63.418060   77.537552
H    3.775546   25.848261   35.170967
H   59.056503    5.071567   82.363007
H   65.724731   14.124934   35.916153
H   21.496588   38.926651   59.650688
H   51.468452   46.773022   70.334061
H   62.433365   57.461136   90.804779
H   38.252380   89.665421   65.659172
H   22.946587   51.524017   23.988319
H   28.082836   75.226852   16.774483
H    8.058100    9.881783   74.010025
H   57.340931    4.780913   60.785046
H   52.337006   62.114128   96.457222
H   68.382217   10.776448   25.118950
H   33.629044   30.977627   95.681915
H   32.758900   89.412766   20.212982
H   67.029671   26.541477    3.457505
H   94.756287   57.365982   75.455246
H   14.207594   42.248581   87.527687
H   56.213867   92.294853   15.085703
H   56.118851   97.468452   50.510635
H   85.940529   64.357094   74.703598
H   62.597420   54.389324   74.723892
H   81.927658    7.401758   74.202705
H   41.799698    4.332979   15.530009
H   19.960114   34.510544   74.163689
H   22.630072   92.026413   47.702557
H   60.391853   22.364017   19.480717
H   77.071304   12.135462   19.784225
H   14.207316    5.028867   27.566023
H    8.158772   83.215736   26.830444
H    2.391986   13.609724   46.084480
H    0.560741   10.802568   87.829102
