100
TIME:    5.335, STEP:  5335
H   56.538002   32.774574   94.261673
H   53.135170   93.958847   14.493945
H   71.461746   57.725113   60.722500
H   82.372070   12.848072   47.734070
H   47.385941    0.381283   21.051132
H   45.291706   95.428291    7.088804
H   73.361778   21.581959    7.657025
H    0.565814   50.146564   18.351452
H   22.483452   73.354858   64.269142
H   29.047998   92.986061   16.601675
H    4.006317   80.907959   25.855625
H   52.220398   91.106789   13.178064
H    3.629565   38.972893   94.909355
H   90.923912   88.631905   63.237175
H   45.392998   93.484055   94.323242
H   87.014572   45.110489   90.189178
H   95.098061   34.839382   59.054443
H   15.153028   35.235325   14.587317
H   28.362865    2.161375   44.429821
H   48.781372   92.519814   79.564247
H   47.690254   25.101112   12.443615
H   73.851990   51.166275   64.953751
H   14.513879   51.233009   79.709290
H   23.359230    0.650362   10.849191
H   38.773224   63.068695   75.940041
H   22.226381   68.943985   88.738510
H    2.035449   20.706852    5.819926
H   82.389778    5.459450   43.120193
H   27.175758   33.124577    4.984489
H    5.561413   58.798485    7.506098
H   26.020523    0.455874   87.290718
H    2.612479    5.113582    5.376362
H   46.147839   78.148521   78.415886
H    3.517425   84.801872   46.995583
H   48.158112   55.635025   49.591576
H   36.399677    3.288425    2.653647
H   91.495026    9.155807   28.842327
H   43.486141   61.323582   98.918571
H   19.879566   65.176445   27.310869
H   60.695194   12.738153   57.782009
H   70.642303   39.239265   68.035988
H   52.141075   51.296379   53.439068
H   57.194317   95.492355   86.826546
H   38.685551    2.190553    2.364548
H   93.884117   21.400665   12.640719
H    9.257883   64.673782    4.835192
H   83.414352   14.973248   76.677010
H   56.524334   50.318741   98.677528
H   20.978340   90.605469   31.658154
H   37.768726   11.933462   10.528030
H   43.137592   54.583801    9.666438
H   64.403435   68.692093   23.828857
H   19.535336   52.942871   93.020378
H   53.143158   20.156738   67.235252
H   16.014278   26.138586   45.724957
H    0.240435    6.921821   11.010818
H   34.467522   35.607735   63.390343
H   28.800106   73.062675   76.137680
H   11.037430   64.186043    1.911783
H    6.964724   37.854244   11.870491
H   96.236115   30.470245   98.438072
H    9.567469   78.284653   53.963837
H   36.253361   43.232590   67.633484
H    9.384028   70.825150   82.294815
H   44.078278   34.746288   92.394020
H   73.608543   77.054466   61.630165
H   59.531555   32.807850   24.636456
H   11.840926   22.651876   21.246450
H   22.797293   66.447258   25.630432
H   38.472466   16.476810   90.499146
H   52.622627   32.407120   98.149696
H   34.072197   74.466629   47.225960
H   59.139481   54.413963   24.958344
H   12.766148   11.767269   86.166313
H   19.393507   36.246128    5.826852
H   51.783005   49.496864   36.951756
H   51.338863   64.144966   85.400505
H   82.628326    1.877299    9.070889
H   17.346447   37.848148   77.206825
H   37.888046   18.395569   61.306213
H   15.269314   84.474686   98.849907
H   41.617783   79.069077   40.668320
H   55.326569   96.339417   38.022335
H   17.189798   68.686569   76.146729
H   92.558449   15.176799   30.583885
H   28.505932    5.016749   12.261907
H   23.467321   15.454971   77.936874
H   41.830467   78.162033   40.262062
H   66.399765   97.128456   84.557381
H   94.652649   89.778610   14.931364
H   42.352867   61.504734   46.127239
H   73.034874   96.722687   35.180252
H   27.437120   87.596962   31.568317
H   62.874275   36.841381   86.530052
H   64.352409   71.853477   38.677860
H   34.570740   85.058685   91.889069
H   39.134819   73.845451   30.368530
H   26.447966   61.662018   70.661522
H   54.565948   59.847385   98.174034
H   70.587296   41.728954   83.803314
