200
TIME:    0.703, STEP:   703
H   23.698137   60.938396   23.256590
H   32.091003   39.637432    8.693422
H    8.433624   89.403587   68.153435
H   33.449493   82.385414   32.392361
H   10.294353   95.463913   47.001675
H   74.556396   40.248447   51.845249
H   10.067267   54.975616   58.613087
H   13.264197    8.879062    8.637993
H    6.231127   80.565041   36.424538
H   94.562744   68.413383   77.809898
H   28.331594    4.484697    7.592904
H   32.692368   54.380978   34.803234
H   22.537937    2.374102   42.315575
H   82.520050   55.160358   64.576500
H   97.268265   75.508789   41.839390
H   15.804824    6.889587   44.335117
H    5.987782   29.403078   92.952400
H   25.568071    5.425070   35.277489
H   80.430260   12.939830   49.299618
H   91.529266   73.346336   19.522549
H   63.641556   99.870811    4.628591
H   79.721458   66.511742   52.732491
H   81.140503   59.175072   38.026779
H   18.415083   92.280411   90.134262
H   23.370827   31.325144   28.889271
H   18.277826   82.884163   91.664749
H    7.862018   68.086998   67.697662
H    5.136229   89.229172    1.949560
H   30.569260   42.456612   35.627239
H   72.126961   33.167603   82.609955
H   12.757009   70.792732   16.760881
H   23.506554   74.357895    5.002465
H   15.936157   18.948128   78.834541
H   81.102959   64.083054   46.383049
H   25.769333   70.669479   30.696949
H   17.937244   39.365345   84.785690
H   99.553391   64.435814   89.430824
H   10.013260   56.731949   94.350288
H   35.934532   29.821367   54.723309
H   85.642509   37.784519   45.610443
H   80.642075   83.595039   16.892353
H   36.384750   33.398060   26.102049
H   68.365372   77.145844   67.520523
H   36.249802   85.721214   35.307213
H   44.596722   90.421257   61.072212
H   34.544262    1.788987   47.723328
H   88.699203    3.528613    6.330182
H   78.843903   65.543541   31.002945
H    4.986214   11.182078   61.500145
H   45.548630   19.890924   86.124886
H   67.194183   64.635849    9.519787
H    3.439292   43.667095   73.496056
H   64.664391   81.180710   13.979247
H   15.515714   91.954346   88.559570
H   57.601089   66.087959   75.799469
H   99.370415   60.943432   93.809326
H    4.109142   18.497536   44.688023
H   72.467087   69.342644   96.946449
H   18.411400   83.421524   18.324574
H   32.394791   93.389320   58.435204
H   48.920010    6.343151   28.708925
H   98.257896   17.521696   52.615601
H   84.202843   34.797585   69.264603
H   35.344353   65.812897   14.005009
H   78.791161   82.981400   36.862659
H   20.577259   34.548912   41.185654
H   68.880470   13.395639   95.400887
H   94.748634   92.502586   96.438156
H   32.991409   12.110028   56.119537
H   42.571762   49.699776   50.957867
H   58.262051   84.600105   85.665970
H   19.127985   11.651957   41.523842
H   92.188614   33.667538   83.992012
H   22.949398   98.787659   74.051857
H   84.782761    8.366471   45.842476
H   65.016632    2.730664   59.851963
H   93.470627   47.186588   65.596489
H    9.406446   14.400917   32.135277
H   15.050598   50.321106   24.683746
H   61.298897   88.084755   72.304169
H   63.018894   22.276878   94.259811
H   46.995270   60.263565   73.543907
H    9.193327   18.745022   76.732925
H    9.575665   76.999504    8.941629
H   22.420696    4.219878   44.661060
H   37.711132   69.574692   18.144642
H   56.606358    3.748899    2.832801
H   71.481163    1.312005   28.905539
H   79.857407   73.184135   78.838196
H   21.125103    6.800495   49.771770
H   21.834459   38.889717   78.695091
H   80.830338   92.597733    8.470371
H   69.254662   11.640314   82.543343
H   39.266129   77.799530   81.817810
H   36.856552   50.663239   87.223206
H   50.098152   38.061024    7.292468
H   85.586220   98.264717   18.269394
H   94.166946   35.632900   52.977291
H   26.526649   65.139977   54.522053
H   75.254791    5.450606   27.363443
H   30.523649   93.227844   90.741829
H    7.788677   83.661339   63.310669
H   32.776955   20.249096   36.972656
H   44.123421   68.794327    8.548989
H   24.724983   21.388157   40.098511
H    5.753117    4.104527   22.213737
H   87.591034   35.845779   54.104462
H   62.022896   52.051228    0.838168
H   84.563019   34.245281   21.521000
H   19.239943   21.604910    7.803305
H   53.286182   92.043365    1.121605
H    4.584727   74.988220   95.785049
H   49.052509   85.647453   83.864471
H   61.655785    9.415640   63.014584
H   48.399498    1.248425   10.538439
H   95.143326   92.253319   99.821526
H   13.538727   14.962214   89.577621
H   38.422062   49.785820   24.723595
H   36.445568   75.096596   60.656967
H   83.001236   55.915646   66.614746
H   45.386909   24.836163   72.348129
H   98.311790   16.511898   61.807369
H   43.398811    2.295106   37.764412
H   97.255913   50.657864   97.589684
H   63.062263   97.488617   77.500137
H   64.684975   75.019882   16.591740
H   83.878044   51.351761   53.173706
H   65.301254   91.201286   38.912952
H   98.165497   35.724152   74.338959
H   90.186592   21.954836   74.389481
H   67.298935   68.654022   21.105183
H   63.928452   90.643509   20.245663
H   90.925880    5.120709    0.819521
H   78.217766   24.873802   55.405460
H   27.298626   92.998337   35.141182
H   50.026436    1.032633   76.860519
H   69.659248   87.744347   78.387634
H   95.167580   49.764565   75.882751
H   58.415268   50.808540   71.440582
H   43.698746   86.884651   82.592453
H   73.539467   49.452991   29.866135
H   35.923737   55.078648   57.040169
H   40.121693   65.282661   83.767464
H   36.497429    9.767865   85.796822
H   62.065113   54.411690   64.208450
H   62.904530   69.952362    7.671463
H   55.681725   94.750191   43.966728
H   30.009949   56.184067   66.168602
H   77.562836   45.461239   93.341728
H   24.221075   93.729675   72.670464
H   59.900936   69.173096   47.848877
H   53.277439   94.298233   33.642956
H   97.684593   14.526249   87.211632
H   22.149027   11.770299   64.511047
H   31.972237   66.106781   69.129242
H   77.246704   44.676937   68.305931
H   64.157730   74.769096   86.238083
H   52.628712   29.231239   20.571280
H   91.191055   99.989777   85.434067
H   58.488800   38.052490   96.009094
H   58.503925   65.599304   71.105438
H   21.865246   20.656912   31.532925
H   85.149208   14.383219   37.039536
H   28.269863   33.781204   51.390163
H   54.521011   37.798756   14.373847
H   19.890760   49.707382   59.770851
H   66.927185   90.078255   57.129982
H   24.036674   51.998089   67.158371
H    0.364254   26.664520   35.763653
H   47.602062    6.965719   85.189514
H   70.519836   11.139962   35.937218
H   30.168087   48.249722   58.879910
H   46.618771   57.559135   77.396500
H   65.524628   63.463634   84.981331
H   49.918427   91.553589   77.461182
H   15.202190   50.161797   23.731066
H   30.661354   67.385017    6.275615
H    5.833497    9.642410   70.800522
H   63.760895   10.616091   63.719749
H   64.275955   59.421669   92.916428
H   72.964760    1.781250   30.954367
H   28.566475   30.671230   86.518745
H   44.316750   89.678947   15.239784
H   61.563900   26.077095   94.223564
H   91.510399   68.252632   76.489334
H    8.953134   40.130615   86.271461
H   47.473907   96.593979    9.524128
H   68.177467   86.836494   41.727589
H   93.209785   63.238098   71.834961
H   58.033070   55.754704   71.552689
H   69.937981   15.706051   75.995125
H   43.857342   97.511642   18.727030
H   14.384724   28.538961   68.413010
H   27.014893   82.009163   42.644142
H   69.005829   33.574844   20.301764
H   76.458511   11.519557   23.223047
H   12.538892   98.184242   19.094160
H   15.453641   88.204254   33.909161
H    5.739100   12.907406   57.310081
H    3.178693   19.306360   91.316277
