100
TIME:    5.441, STEP:  5441
H   49.369545   23.054184   94.164627
H   50.207619   99.702347   21.177578
H   73.284592   65.351303   59.477886
H   82.389862    8.480602   41.923447
H   46.436508    8.877565   18.177361
H   43.647587   95.313454   17.586512
H   67.805901   28.739902   15.946366
H   92.234421   59.316593    8.618711
H   19.877769   63.163422   57.596458
H   26.151583   94.508064   20.752813
H   94.146469   85.173126   15.645184
H   48.174393   96.420052    5.633118
H   96.865494   32.563011   84.376640
H   85.675346   88.305183   71.303383
H   46.682091   84.015610   89.228333
H   82.752640   35.839371   81.390350
H   86.574196   41.850140   68.704041
H   17.419783   30.077991   10.912916
H   30.013859    6.608402   50.014004
H   45.925797   90.268349   86.781227
H   41.400063   14.548180    9.566608
H   84.014313   51.306992   55.926865
H   13.098424   50.370918   76.676605
H   13.510284    1.918429    2.976609
H   34.981964   54.662094   76.722878
H   21.743174   65.811020   78.770279
H   92.895248   16.300564    7.923295
H   73.445381   10.407173   46.624359
H   29.480598   42.741825   99.973999
H    9.625816   56.175011   15.932518
H   30.192284    9.960917   78.904335
H    9.305290    2.185121   95.563454
H   53.614712   70.392937   87.965202
H    7.996295   75.087578   42.529854
H   45.523315   47.622269   56.045937
H   45.614185   11.590961    2.320300
H    1.662120    5.273567   37.194744
H   39.105328   59.383472    6.398592
H   15.404969   62.866753   17.038965
H   50.711597    2.814604   66.122093
H   63.397827   42.876060   70.533302
H   42.614403   56.054054   58.418331
H   58.107357   96.128006   94.483467
H   31.917408    3.969824   12.728490
H   84.689018   17.218796   21.711679
H    7.889949   66.695572    5.265833
H   84.242477   20.738178   77.694374
H   56.529995   51.410507    5.236164
H   24.076530   81.826050   27.429783
H   39.991886   13.546850    3.114472
H   43.129505   44.350311   10.783881
H   69.554955   58.856068   16.869858
H   21.734234   53.557495   86.864433
H   50.688705   18.426895   71.912865
H    7.574121   35.428051   46.626675
H    0.372464    6.810319    7.402328
H   41.187141   32.549171   73.471794
H   20.907444   63.052391   73.407455
H   19.397245   68.664711   93.774452
H   99.969940   46.002056    8.855598
H    2.922667   25.540718   90.172997
H    5.805668   77.298019   49.167343
H   43.450123   35.999435   60.364746
H   16.662876   71.402573   79.417404
H   48.286026   26.280117    2.265296
H   67.096764   71.784874   67.897713
H   51.027100   36.472141   29.754414
H    4.518611   28.714415   26.313864
H   28.080633   58.830772   18.981979
H   40.619606   21.808270   90.275940
H   49.256752   25.194992   96.878395
H   25.332096   70.948715   54.987206
H   52.228195   49.171059   22.240250
H   10.433002    5.058611   79.868034
H   24.504187   36.397358   13.862629
H   54.289215   56.290886   29.819567
H   60.963390   54.957157   87.275108
H   87.608398   94.946480   14.924981
H   22.429226   37.536793   78.389168
H   32.690430   12.621457   52.174194
H   17.343599   85.571304    5.185193
H   49.573120   79.756546   31.801550
H   62.031631   98.112122   48.117535
H   24.482393   77.757126   66.464783
H   87.397224    8.546340   20.308342
H   26.066036    8.910312   19.622940
H   30.546820    7.747869   82.991348
H   43.535240   69.680176   39.163017
H   68.599472   91.226448   83.690437
H   85.281250   85.418015   18.720545
H   46.690819   67.228470   48.365765
H   80.877800    4.694836   37.199615
H   34.231949   90.776833   39.765461
H   73.118996   43.272289   93.677483
H   62.519859   62.359013   41.113712
H   43.325897   80.872772   86.414062
H   30.721003   79.928612   24.272430
H   26.836958   62.564545   68.964836
H   49.516327   60.304310   89.295952
H   77.171860   39.009243   73.592468
