100
TIME:    6.375, STEP:  6375
H   86.207352   37.402122   93.309525
H   24.413074   50.316822   80.070168
H   89.346268   32.546440   48.511196
H   82.546631   70.000214   90.727173
H   38.070755   83.741791   92.853561
H   29.160725   94.301582   10.083527
H   18.856895   91.807701   88.986382
H   18.823868   40.120121   22.862217
H   96.918205   73.363098   98.802635
H    0.635529    7.919481   57.324772
H    7.268051   22.754278   25.677567
H   12.523743   43.236317   39.149147
H   37.264847   76.081459   91.569511
H   39.428551   85.426338   42.380878
H   58.036751    0.586413   44.328358
H   45.199387   54.148232    3.859992
H   11.467582    3.628418   53.729744
H   37.393551   84.631668   78.534218
H   44.558216   45.793442   99.223129
H   20.764404   70.429970   50.372246
H   85.975189   21.565716   84.214180
H   73.557800   52.546890   76.388153
H    0.626825   42.774757   49.954651
H   26.728210   13.091768   33.610218
H    1.578465   80.590698   83.620705
H   17.485476   38.198799   90.940971
H   12.355141   77.476822   26.456869
H   94.638138   54.003151   77.497574
H   49.789284   27.481647   55.822205
H   45.438450   33.058739   90.183151
H   66.953819   93.714424    5.009260
H   68.278656   76.375809    9.098335
H   19.403206    2.057477   72.107300
H   47.461082   89.492081    3.183397
H   22.300156   76.993111   12.910407
H   26.805262   84.745872   99.383278
H   91.244545   71.068970   10.790324
H    0.503371   42.288548   72.306755
H   75.982513   42.515312   26.527185
H   62.738735   15.376898   39.606197
H   99.566101   74.923454   92.537941
H   62.963699   66.602707    5.415440
H   66.150543    1.729549   61.945885
H   72.277435   19.646933    4.049918
H    3.672112   80.366470    1.635799
H   95.835808   84.510208    9.060350
H   91.539352   71.532059   86.658699
H   56.579876   61.030411   63.026798
H   51.375679    4.473218   90.172470
H   59.584858   27.763948   37.791809
H   43.063854   54.178543   20.629192
H   14.947330   72.187683   55.557137
H   41.109432   58.973145   32.618305
H   29.061737    3.186191   13.127685
H   33.208427   17.279205   54.572002
H    1.535814    5.827842   75.606750
H    0.400210    5.598502   62.303001
H   51.359772   74.847343   49.350571
H   93.060013    8.128793   22.074104
H   38.334267   17.791386   82.290428
H   61.840595   82.104263   17.351330
H   72.656715   68.604477    6.904261
H    6.858739   72.264442   96.317566
H   80.799973   76.490433   54.060818
H   85.357742   51.684139   89.244698
H    9.720768   25.352806   23.123594
H   76.090164   68.760437   74.847000
H   40.000999   82.130043   70.964462
H   74.632210   91.719498   60.405170
H   59.538750   68.787529   88.309204
H   19.597454   61.646179   85.676552
H   48.318790   39.951248   23.369087
H   91.328857    2.974144   98.290833
H   89.871315   45.945072   24.372370
H   69.533928   37.729893   84.666031
H   76.368248   16.150055   66.971588
H   45.769131   74.028831    3.803117
H   31.489422   33.874390   66.508659
H   67.215736   34.793339   88.807167
H   86.889359   61.743294   71.709251
H   35.621414   95.233963   61.007771
H   19.672224   85.813660   53.671345
H   21.107628   13.730763   37.066383
H   88.739388   57.681786   81.159142
H   41.920021   50.126076   29.767532
H    4.567476   43.218903   84.482468
H   92.926552   39.838356   27.528067
H   58.556541   94.939636   29.478981
H   87.981796   39.221962   76.051521
H    2.702542   46.992252   52.106590
H   84.913902   17.663914   68.090134
H   49.984341   74.940369   54.992874
H   94.103378   18.800419   11.993114
H   63.385342   99.937080   56.655441
H   46.372673   78.696243   62.576786
H   20.470490   43.989349   38.172028
H   56.584709   33.527695   70.557205
H   25.972101    1.894603   50.902283
H    5.022871   64.331001   11.063499
H   35.186710   15.042473   83.616615
