100
TIME:    1.737, STEP:  1737
H   99.856598   62.729568   97.555740
H   52.952446   98.921730   87.569725
H    9.612318   98.871330    2.944997
H   81.768158   61.085838   44.952785
H   79.612900   11.985723   18.607391
H    1.080769   99.326271   50.767101
H   61.932575   78.628624   26.288521
H   83.361519   38.874256   48.709000
H   10.929222   19.288055   90.748878
H   27.371672   41.324104   75.710014
H   38.683517   36.134312   72.432175
H   89.543228   10.757404   69.287529
H   32.772133   56.616493   52.484764
H   69.075569   99.721931   89.426186
H    1.627684   14.871485   67.278030
H   31.683975   59.806389   88.855240
H   84.415268   96.867569   31.504732
H   38.263359   10.230379   39.327927
H   72.316231   51.224052   54.873043
H   45.719490   68.924911   34.595650
H   61.200592   83.293579   10.099529
H   28.902836   46.392578   71.353371
H   62.552574   80.495308   82.652100
H   57.655403   57.514317   78.069962
H   67.458855   48.413834   49.378029
H   38.694378   75.850494   26.363646
H   12.294956   70.273819   34.435146
H   85.978867   37.516994   24.187899
H   48.940338    6.686456   75.063591
H   67.597649   47.849319   21.474957
H   84.430397   77.810501   71.961151
H   75.432465    4.522811   38.461266
H   92.709305   41.394691   54.279633
H   51.493874   14.536934   98.574829
H   37.595970   27.616402   30.499596
H   23.580299   20.933966   14.668393
H   46.399658   40.924171   45.334049
H   92.198402   27.162083   45.016117
H   72.632645   43.428169   75.644241
H   99.587822   49.571537   74.698441
H   16.536949   15.784099   83.267502
H   75.509521   89.814873   84.407349
H   26.202635   73.916214   26.939003
H   68.440117   41.882751   50.568233
H    5.984039   63.355213    4.749559
H   55.677830   96.047401   90.224007
H   54.421192   19.441561   42.465767
H   56.332180   13.267424   76.053658
H   15.805593   88.591270   75.185745
H   62.320240   57.187649   62.175335
H   43.412098    1.947011   71.731506
H   89.548378    2.558036   60.032391
H   44.911705   32.080444    1.986857
H   36.467472   78.866539    8.465994
H    2.476717   10.779295   15.145817
H   95.739609   10.706444   33.495224
H    6.370897   39.426750   21.190725
H   96.716644   12.849219   68.814407
H   27.270424   12.160701   78.133499
H   44.394039   61.300648   14.205283
H   69.271957   97.794380   78.965172
H   37.261627   11.776737   16.759933
H   92.052185   88.702599   14.393365
H   62.317314   51.243340   79.981895
H    1.265644   22.112461   57.325367
H   94.638741   55.921608   48.890347
H   48.206070    8.416360   50.925060
H   60.379311   16.878021   49.241245
H   43.474785   24.976578   51.291824
H   65.572327   35.508934   98.075500
H   66.874748   77.215141   41.314854
H   30.743818   93.877274   83.796989
H   93.735550   32.387058   17.208904
H   91.962303   39.458847   99.973488
H   45.918900   31.115244   33.074810
H   66.725502   18.897623   79.051018
H   24.662958   75.996078   21.767893
H   13.587749   37.142426   10.367080
H   44.812553   48.413914   37.058357
H   14.339855   14.352793   71.277107
H   44.873783   47.251720   83.805336
H   71.652832   55.571487   41.530960
H   27.702702   36.248627   95.340637
H   69.661079   60.798931    4.774178
H   67.751938   40.234238   79.369827
H   11.312016   72.859215   62.405815
H   83.165016   77.058868    6.369991
H   83.917435   66.226181   77.687111
H   91.729439   97.459297   13.988525
H   12.763975   37.810921   86.311150
H   95.107704   67.223083   70.143997
H    6.807474   26.144564   66.617134
H   96.733833   79.677536   53.294296
H   15.114943   18.594110   43.935341
H   26.560829   94.139191   56.000755
H   37.390686   27.138464   77.730545
H   24.727325   67.363365   37.292892
H   13.242814   31.027191   28.244183
H   25.965656   44.337818   99.551437
H   47.114944   34.086338   30.388187
