100
TIME:    7.199, STEP:  7199
H   30.482828   61.838020   92.555130
H    1.658471   94.966331   32.024830
H    3.514943   91.829277   38.836086
H   82.684937   36.052460   45.561520
H   30.689703   49.788937   70.510910
H   16.380024   93.408882   91.687180
H   75.669617   47.449314   53.424328
H   54.059090   11.407479   47.206055
H   76.662712   94.138794   46.935940
H   78.129341   19.751970   89.587715
H   30.621582   55.909916   46.305122
H   81.075592   84.539413   80.496605
H   84.693321   26.239101    9.690063
H   98.630257   82.886543    5.086293
H   68.045052   26.982658    4.703719
H   12.067001   82.078064   35.461426
H   45.206398   58.127491   28.741724
H   55.014950   44.535599   49.970901
H   57.389210   80.360596   42.632473
H   98.565933   52.931995    6.473969
H   37.077850   39.534409   61.846989
H   52.555481   53.640762    6.216908
H   89.625175   36.073219   26.379072
H   50.167480   22.949190   72.414124
H   72.106880   15.242867   89.706154
H   13.663403   13.875126   13.424529
H   41.301174   43.223495   42.808369
H   25.111313   92.464699    4.732034
H   67.706154    2.241898   16.871523
H   77.035004   12.664682   55.688286
H   99.380211   67.603012   39.817039
H   20.306362   53.608540   32.816551
H   77.445442   41.768867   46.339729
H   82.276390   13.977231   68.468918
H    1.792344   14.604683   63.046112
H   98.434792   49.285568   96.793190
H   70.276047   40.893188   75.718414
H   66.442528   27.206944   30.454819
H   41.200802   24.562025   46.675507
H   85.127922   38.237019    4.436417
H   43.250549    3.200025   11.950125
H   93.521339   69.834030   47.481159
H   73.241852    6.672575   21.465557
H   19.663715   33.477501   84.615471
H   32.196198   47.855190   72.147896
H   85.198845    0.226726   12.407976
H   97.976852   16.344124   94.567268
H   56.627010   69.517349   14.010891
H   75.462715   36.228611   57.304733
H   76.884033   40.306820   80.178505
H   43.007275   74.626434   29.314159
H   55.000149   95.724670    1.467102
H   58.202755   63.750977   84.762337
H    9.981842   89.744263   49.487869
H   67.599808   89.490761   61.581585
H    2.562105    4.961074   47.555847
H   52.636211   81.822197   40.672325
H   90.003586   97.030327   28.126364
H   58.045868   42.950031   58.817802
H   83.958961   81.127396   58.853905
H   13.818802   43.784340   53.104446
H   43.411354   60.934799   69.623611
H   62.801983   16.036011   39.813416
H   37.382046   80.979080   31.686733
H   18.062672   85.872284   65.980507
H   59.101471   84.389793   71.844910
H    9.979010   97.251404   14.629775
H   83.081490   29.256403   10.356429
H   15.698338   32.512100    8.723081
H   76.234337   10.229953   86.574097
H   93.430946    5.581800   75.793983
H   80.444908   12.567254   83.730461
H   37.603394   62.219067   77.167786
H   71.728127   93.794983   75.413605
H    9.254838   38.915325   47.134663
H   95.844200   68.962425   11.528506
H   20.605682    2.708055   18.416594
H   70.202438   79.995872   12.012568
H    6.732542   32.372990   97.998207
H   46.478958   16.855759    0.721002
H   51.747154    3.759316   10.257094
H   81.503548   91.157288   84.735771
H   73.228889   27.510778   15.539095
H   45.428867   28.193432    5.900380
H    1.798094   98.581444   49.890022
H   85.605698   73.487015   41.703705
H   47.959721   79.926521   66.819450
H   71.808739   29.002359   20.935463
H    5.082105   93.343880   69.312263
H   29.850157   13.088505   81.563156
H   18.635487   62.155342   85.491501
H   10.951998   36.912567   70.693245
H   46.923206   43.525700   75.714302
H   43.021835   49.927818   12.216365
H   32.127190    4.886310   81.512085
H   88.529449   11.451564   95.611015
H   91.179863   80.815659   23.168068
H   24.381586   42.665562   34.362183
H   65.769310   67.889229   42.045979
H   86.368843   93.896805    4.237199
