100
TIME:    6.763, STEP:  6763
H   59.968094    1.821483   92.954300
H   13.698612   71.342125    4.533611
H   96.018570   60.461174   43.955441
H   82.611755   54.015106   69.461060
H   34.595474   14.841612   82.332993
H   23.142628   93.881233   48.509106
H   98.522095   18.007206   19.328562
H   88.327827   73.686737   87.237541
H   87.380424   36.058594   74.380943
H   90.037910   13.491322   72.516548
H   71.177246   38.366398   88.303047
H   97.714325   62.684864   11.531532
H   12.505692   52.617435   53.015800
H   20.217728   84.230415   71.908134
H   62.749397   65.928337   25.670185
H   29.598877   20.212440   71.652832
H   80.266823   29.290791   89.050911
H   45.691006   65.751480   65.083046
H   50.599995   62.071609   19.663570
H   10.311920   62.189411   76.789116
H   62.950714   82.939362   73.681770
H   10.755737   53.061966   43.346344
H   95.446404   39.619179   38.853882
H   90.677711   17.733370    4.793773
H   87.701118   49.820961   86.486183
H   15.716753   26.728004   54.454262
H   78.898338   61.349136   34.156361
H   61.898460   72.113686   90.321182
H   58.225868   62.684216   37.480774
H   60.316441   23.455833   21.027557
H   82.222557   28.507191   74.311974
H   92.777313   65.653946   73.179283
H   46.734097   73.669197    7.061406
H   63.854698   53.934097   86.837387
H   12.643709   47.616035   36.517944
H   60.533611   15.135783   98.163673
H   28.459034   56.859985   41.363194
H   84.465050   35.187016   99.688652
H   59.605862   34.060966   88.927643
H   26.194767   79.054245   70.134201
H   73.048584   88.238457    1.678940
H   30.265274   68.124252   25.223602
H   69.489655    4.057180   89.972893
H   47.502491   26.159384   41.985840
H   70.014748   65.056290   34.838810
H   90.827141   91.910721   10.636660
H   94.570602   92.632401   90.382637
H   56.600597   65.026688   87.034058
H   62.716225   72.337624   74.696518
H   67.729736   33.670620   10.662549
H   43.037212   16.719503   24.718716
H   33.808094   36.183380   30.087532
H   49.158230   61.222900   10.083704
H   20.077515   96.856140   30.248032
H    2.314373   51.282440   57.872631
H    2.019068    5.419703   62.398315
H   24.997019   94.402702   99.204918
H   22.468660   38.205925   39.356918
H   23.660706   24.525013   92.288200
H   12.731358   47.615452   71.254784
H   86.315575   64.058853   87.099350
H   58.885841   64.993027   89.349258
H   33.200207   45.788368   69.711243
H    7.442333   78.604019   43.525448
H    0.756818   20.694294   25.377996
H   85.885773    6.064491   46.065186
H   44.960648   82.176086   93.579178
H   13.199224    4.319988   89.513107
H   93.968269   63.840286   36.069324
H   67.399376   88.301201   87.492188
H    7.276103   35.247070   81.023109
H   16.327127   27.074356   51.777725
H   66.030945   83.781174   88.344543
H   81.328163   21.389530    1.319665
H   88.242424   38.283451   14.079239
H   85.538963   41.017796   40.865204
H   81.007416   40.446186   10.684340
H   49.718365    8.503843   87.934624
H   85.823586   33.653660   93.134987
H   67.861160   40.607430   38.282616
H   43.214340   99.248001   84.198013
H   48.786469   88.329834   21.212204
H   45.650688   20.219275   74.017822
H   15.433656   90.883446   45.721096
H   23.027288   25.855354   92.155464
H   95.638168   57.472290   11.426541
H   18.840273   11.627486   46.029350
H   64.796654   63.892994   25.456062
H   96.033554   17.619371   72.878181
H   68.399521   31.027866   65.975571
H    0.792454   38.614296   76.283981
H   78.692413    4.121922   62.384506
H   18.974659   30.442905   41.997749
H    0.885126   23.476160   82.817734
H   39.664848   43.941727   71.492920
H   52.517670   28.667650   18.131439
H   25.787035   55.794357   48.243179
H   25.223169   21.092915   43.113983
H   86.539452   66.006477   78.565376
H   59.285740    5.085932   46.239658
