100
TIME:    6.587, STEP:  6587
H   71.870438   17.961180   93.115433
H   18.558781   61.805439   93.436623
H   92.991959   47.798820   46.021969
H   82.582214   61.266083   79.107544
H   36.171890    0.734520   87.105209
H   25.872486   94.071907   31.078598
H    7.746244    6.122570    5.565104
H    2.161087   58.460178    3.396689
H   91.706841   52.980225   85.458824
H   94.845039   10.963886   65.625435
H   87.548340   31.284613    5.256683
H    4.431732   53.862843   24.058937
H   23.736649   63.261600   70.504082
H   28.931656   84.772896   58.514759
H   60.611702   81.649529   34.133686
H   36.675522   35.605995   86.262207
H   94.419655   17.650288   73.028938
H   41.927212   74.315689   71.184608
H   47.859394   54.687698   10.391719
H   15.053253   65.927040   64.806206
H   73.394806    0.459906   78.459358
H   93.882446   52.828323   58.334381
H   97.796257   41.050575   43.889282
H    7.030319   15.627901   17.865248
H   93.996040   63.779091   85.186378
H   16.519060   31.931252   71.004509
H   94.074364   68.665054   30.663809
H   76.749344   63.898598   84.504288
H   54.398964   46.715954   45.800598
H   53.567661   27.811790    7.036518
H   75.296532   12.724973   88.236534
H   81.664520   70.517471   89.472496
H   34.336269   86.546394   91.205933
H   56.418419   70.063492   94.252182
H   17.024094   60.941719   25.809328
H   45.234051    1.350469   98.716896
H   11.578359   63.305298   27.495031
H   91.740196   38.408329   87.267998
H   67.034882   37.895927    5.983357
H   42.771542   95.530075   56.286770
H   85.077148   82.198662   97.532570
H   45.097549   67.434067   16.238434
H   67.975006    3.001345   77.259514
H   58.740162   23.205282   24.777918
H   85.282082   72.001114   19.777719
H   93.099113   88.553787    9.921633
H   93.195602   83.061111   88.693428
H   56.591198   63.213943   76.144165
H   57.572060   86.914772   81.716537
H   64.034424   30.991533   22.968542
H   43.049297   33.711563   22.863674
H   25.252754   52.515533   41.640755
H   45.507229   60.202393   20.305567
H   24.152832   99.726990   22.482101
H   16.328159   35.858002   56.375439
H    1.799860    5.604838   68.389771
H   13.839849   99.481071   82.465904
H   35.573639   54.826775   43.890121
H    9.780307   17.087391    5.799281
H   24.345100   34.087009   76.260643
H   75.213524   72.244400    0.822427
H   65.132423   66.631210   97.311905
H   21.251471   57.798134   81.780090
H   95.356857   77.645279   48.304379
H   93.771622   34.751247    8.987433
H   96.697784   14.813667   35.658691
H   59.081253   76.090637   85.082108
H   25.356773   94.254311   81.099289
H   85.197273   76.486526   47.108265
H   63.833031   79.449638   87.862793
H   12.865084   47.221924   83.133949
H   30.839151   32.915421   38.891129
H   77.506287   92.487183   92.856262
H   85.203407   32.528477   11.776621
H   79.756096   38.032352    0.736859
H   81.379051   29.737289   52.707123
H   65.023041   55.679951    7.563039
H   41.449566   20.012083   78.215630
H   77.382912   34.170628   91.171852
H   76.492508   50.194832   53.445213
H   39.770126   97.427200   73.678726
H   35.580292   87.188477   35.936207
H   34.517754   17.275915   57.256783
H    3.325196   75.822899   61.795437
H   31.597540   36.864754    9.216579
H   99.687973   51.006836   99.204330
H    7.085621   24.424232   37.637016
H   61.966087   77.976013   27.280891
H   92.381210   27.418261   74.317635
H   83.959579   38.269444   59.684258
H   93.589806   29.111286   72.567184
H   65.670197   90.885010   59.031601
H    7.692919   25.161777   28.387400
H   83.874916   12.798526   70.950302
H   42.707573   59.707230   67.448486
H   37.980804   35.617523   27.222015
H   39.756950   45.694016   58.365005
H   25.562891   12.384358   46.646820
H   94.923729   65.246468   93.306343
H   48.354221    9.602242   63.194859
