100
TIME:    0.496, STEP:   496
H   83.780190   76.535622   98.691910
H   87.473061   31.637039    9.287860
H   88.286407    9.588372   17.516014
H   81.559860   12.214590   12.975364
H   90.728424   12.514108   52.256371
H   20.324989    0.673815   27.865839
H   26.975567   94.829247   29.240618
H   80.901672   31.512249   62.654007
H   41.435371   38.605087   68.866829
H   61.285683   23.507439   27.112650
H   54.118317   86.200272   91.972313
H   36.909893   48.552528   57.623070
H   11.712283   31.698837   75.830070
H   30.522785    3.547985   94.985176
H   86.535133   25.718931   26.929674
H   81.580750   68.354378   91.867661
H   84.188896   14.798264   18.514612
H   11.743651   70.580139   82.350876
H   52.987808   99.159424   89.494324
H   79.223122   95.132568   50.026146
H   34.843201    6.838398   43.780563
H    9.907582   44.754601   77.022591
H   79.121712   90.588280   18.158752
H   72.957748   42.630497   70.238480
H   11.844141   46.837986   40.221268
H   44.384693   12.830537   42.683189
H   19.307756   21.858509    9.808676
H   90.690117   79.590790   83.169571
H   21.956314   94.093254   33.725372
H   20.012281   78.563766   22.818977
H   35.612980   66.521431   70.162590
H   97.075226   38.807396   53.346870
H    5.294800   32.191994   42.480553
H   99.058937   28.267151   50.855247
H   68.442970   21.426529   54.930336
H   15.680345   23.449121   18.937666
H   27.372196   86.370949   47.548107
H   43.489151   49.876003   57.441631
H   28.421528   69.919853   94.587082
H   16.476128   65.750282   77.058952
H    1.346546   73.198647   54.026844
H   87.043510   34.118553   26.102926
H   15.513282   66.474304   37.299797
H   47.686142   21.083868   29.228142
H   13.631508   12.322242   98.551086
H   71.616722   72.528374   85.263359
H   41.317371   52.498295   31.861517
H   56.265903    0.490117   99.267639
H   79.527824   91.370895   24.687941
H   36.292492   38.298832   48.973213
H   43.506779   21.758101   58.646626
H   29.236933   17.713516   41.500938
H   19.168001   24.884705   74.064064
H   65.202698   99.109291   53.703327
H    1.272332    1.986368    4.614946
H   94.186844   12.010672   75.741791
H   27.696114   75.235023    3.161101
H   89.125671   30.045860    0.778706
H   29.395386   59.725891   73.406082
H   26.287979   65.913147   49.502159
H   90.988419   55.503334   75.723053
H   81.307129   23.328659   72.913605
H    7.875786   73.329964   99.530373
H   77.099373   44.492599   13.673162
H   52.010262   21.229141   41.752792
H   70.875313   17.615467   75.513252
H   47.773888   65.508209   91.008652
H   46.103737   45.904282   89.914268
H   81.623131   14.146919   29.124065
H   40.433983   73.091942    0.687751
H    6.281476   61.656590   56.198673
H   33.069843   35.064339   92.936226
H   74.651535   93.773201   49.031116
H   19.273605   17.991503   73.729851
H   86.085861   29.349447   38.998463
H   37.384808   39.361595   62.553829
H   11.988193   83.554802   99.810730
H   55.283310   18.288151   41.832890
H   85.327110   52.049656   23.219032
H   75.200729   81.941658   78.190369
H   20.588161   34.413006    9.633635
H   78.538857   47.466812   45.304138
H   49.178936   15.536181   77.141449
H   84.290131   54.604954   18.126015
H   28.178915   17.858170   99.670937
H   39.877209   27.272751   76.226952
H    0.281427   67.289680   47.194332
H   63.939789   65.583046   90.583748
H   65.976265   66.555656   24.142570
H   22.483086   88.876877   41.943737
H   44.320927    0.214922   43.936352
H   14.985907   32.809563   42.974297
H   17.108177   42.492401   57.286797
H   95.167580   43.319016   60.260151
H   48.016697    5.300211   27.483654
H   34.889175   76.144768   41.829994
H   23.232134   96.144981    8.663460
H    8.686301   20.460815   48.099640
H   85.083855   38.988354    3.504911
H   70.044754   65.964775   49.914291
