100
TIME:    0.114, STEP:   114
H    9.613305   11.566895   99.041641
H   98.099068   10.925652   85.191620
H   81.723114   82.105583   22.001320
H   81.495743   27.953962   33.914314
H   94.149963   81.895126   62.614250
H   26.248566    1.089576   90.035179
H   46.995144   69.036552   99.367432
H   10.926123   98.465118   97.726357
H   50.825661   75.332718   92.910866
H   71.725166   18.023941   12.152887
H   89.651031   70.829575   28.768738
H   51.490780   29.404732   84.814690
H   36.010963   54.810257   13.798512
H   49.437428    4.725779   65.916664
H   81.889534   59.838417   45.293087
H   96.939178    1.766156   23.576870
H   14.900717   89.536110   83.734276
H    3.580878   89.156708   95.594040
H   47.039459   83.135895   69.367279
H   89.563515    3.141993   23.965326
H   57.511627   44.868767   54.147186
H   73.278847   44.250404    9.548349
H   84.221962   93.695061   29.089317
H    8.449741   38.049015   98.607529
H   25.505526   77.132210   37.400101
H   46.132282   24.216614   78.485649
H   52.248981   37.738300    2.228524
H   22.921715   61.760311   70.544266
H   13.649985   59.434872   51.783173
H    5.365291   88.018173   92.451653
H   20.586184   32.265236    0.391042
H   72.955414   49.360542   88.710548
H   78.388367   60.141365    8.066976
H   82.918831   63.275269   66.948723
H   77.938179   50.302689   31.670280
H   82.466850   93.441032   20.252073
H   90.733772    0.359627   17.447563
H   59.276611   56.867718   30.486078
H   45.595951   78.074425   31.200363
H   52.455379    1.510414   47.003716
H   27.451084   60.090412   45.024174
H   21.375504   16.972971    8.156192
H   12.223620   64.183563    9.707888
H   72.079910   14.682324   91.877945
H   46.766457   27.394032   65.862854
H   76.495476   65.347221   83.765343
H   37.283802   31.890369   28.597357
H   56.245502   96.555801   75.631622
H   68.359734   23.007885   39.926788
H   28.280729   32.484547   75.691055
H   43.531994   58.638725   54.625668
H   10.673478   53.161125   66.579300
H   11.244106   22.669739   96.248695
H   74.045074    5.342227   36.846272
H   31.684059   68.499481    1.373521
H   93.708878   12.412495   88.745972
H    3.479750   86.257393   66.829781
H   17.571085   66.120659   10.618547
H   99.268837   43.585785    2.731204
H   51.498779   36.550423   60.360374
H   66.891922   73.268295    5.508101
H   94.865051   26.884262   90.196167
H   81.965858   99.379128   25.737274
H   50.868057   42.414612   24.045614
H   36.846489   51.739780    6.177418
H   94.342293   36.605885   52.926434
H   78.422020   52.302601   72.566147
H   72.490974   24.057194   71.652458
H   62.585869   41.595009   53.083584
H   32.696175   53.878494    1.491040
H   18.412733   87.647728   60.780155
H   64.566124   47.742104   64.969368
H   99.558243   12.668400   58.826511
H   27.681732   42.165844   96.433250
H   67.666672   28.805906   10.039742
H   28.352995   14.878500   88.258926
H   77.305908   16.663383   93.049255
H   37.336258   43.266102   20.735722
H   67.018669   53.166225   18.959595
H   93.934677    2.745063   11.099926
H   13.112934   30.460474   86.802338
H   49.877567   44.972061   77.247986
H   25.009159    9.160140   40.757721
H   58.012978   21.916721   53.017555
H   46.779892   41.754318   36.701164
H   48.674046   13.237224   49.701138
H   74.768517   95.064186   28.979153
H   57.790344   96.167061   94.553200
H   58.049019   87.825157   27.268295
H   56.255898    4.596509   28.287119
H   28.687929   79.586609   35.869213
H   86.721474    4.080541   35.696968
H   92.598824   31.047319   27.734278
H   58.247139   20.147139   34.505344
H   54.620792   39.518490   18.706852
H    3.337516   91.229851   61.560677
H   53.553429   74.222649   30.632668
H    7.283918   17.208313   54.211197
H    3.281414   37.341702   35.502476
H   46.321301   75.774742   86.706039
