100
TIME:    9.610, STEP:  9610
H   67.436920   40.738655   90.347794
H   35.070694   25.615620   84.046501
H   44.957935   65.285789   10.533085
H   83.089615   36.719353   13.405242
H    9.085398   43.040863    5.139978
H   78.996338   90.796867   30.456024
H   49.309170   10.250567   41.967693
H   64.559250   19.989414   25.835243
H   17.395729   62.329636   95.171806
H   12.274382   54.370365   83.991096
H    6.356215   52.920227   14.063417
H   89.053658    5.390247    8.879055
H   30.951950   80.307762   70.091629
H   79.251999   75.455177   88.565041
H   97.329048   11.620247   88.755638
H   15.125534   71.203171   35.327209
H   51.328011   17.598190   48.224564
H    6.571227   27.216148   66.394608
H   94.947479   81.504852   69.653763
H   33.605274    1.734750   70.626091
H   94.005203   99.511543   96.411255
H   83.700409   56.841400    0.898030
H   57.434853   16.472002   57.397354
H   26.149963   51.791718   93.351852
H   85.876205   24.039261    7.508316
H    2.293036   42.800705   86.538216
H   33.397644   43.000980   90.642136
H   21.678045    5.002019   84.428062
H   20.131527   20.986368    2.902843
H   69.483177   52.992050   47.355751
H   94.268929   83.802902   49.066483
H   72.538620   86.997742    9.618202
H   47.273499   65.369049   63.541649
H   84.147141   93.023613   66.897408
H   41.789497   32.058113    9.732358
H    8.018496   38.130077   89.214668
H    1.523458   52.596443   65.695755
H   66.790855   83.087227    0.593185
H   39.431278   72.031700   13.032135
H   58.038097   12.526370   94.129288
H   78.476242   85.924957   68.751915
H   90.335167   79.289322   70.565666
H   93.990814   21.136860   95.613579
H   65.720375   73.952797   20.348476
H   23.057898   52.741184   78.466583
H   54.081268   46.206860   22.203032
H   16.824566   47.465450   17.717695
H   56.774166   94.349884   63.189518
H   45.938583   36.549870   61.129272
H   27.497068   77.010307   11.601286
H   44.791767   42.007156   51.738022
H   72.174973   72.003098   43.199532
H    8.203249   77.730774   44.739105
H   54.142776   50.410530   55.878731
H   75.632240    0.778732   82.075195
H    5.565002    2.424936   65.479706
H    5.485119   12.254063   69.978401
H   10.475755   69.341133   66.023582
H   48.200207   44.827789   73.726280
H   24.858265   66.445831   90.279335
H   65.910645   31.662138   65.130852
H   57.840233   38.493546   60.535080
H   26.485313   51.517174   74.485306
H    2.940874   94.112732   66.231155
H   13.759551   93.307777   90.505775
H   10.992306   64.532036   14.403003
H   16.540173   80.603882   31.033688
H   16.537521   67.143562   25.616180
H   35.863396   59.273026   57.511600
H   25.199081   31.329721   81.460968
H   16.863655   41.533222   46.877876
H   81.906715   32.511131   60.453709
H   80.402222   42.959843   15.347759
H   18.657406   41.203106   32.159401
H   25.393721   42.465458   29.938147
H   52.846275   23.483231   49.297646
H   39.576118   94.029831   61.180817
H   83.467308   22.354454   45.175110
H   22.348379   25.291119   24.905252
H   28.241589   85.516670   93.011238
H   98.947365   28.702219   54.360039
H   62.421356    6.799578   83.030922
H   25.726782   67.831459   45.151325
H   11.302186   34.508133   85.692406
H   84.404587   47.756119   16.172407
H   30.116741   62.047562    9.130813
H    8.985094    4.626630   81.785011
H   10.583410   36.075478   95.940308
H   55.119877   59.102715   49.593391
H   16.685526   13.893799   67.748749
H   17.304129   92.342636   36.407738
H   89.341583   18.243357   16.636278
H    1.473149   15.861944   62.160637
H   74.082619   96.051865   77.781441
H   90.438675   88.924110   36.912239
H   87.668167   16.244017   71.079865
H   99.806114   19.176525   84.507950
H   19.727785   61.961590   85.954918
H   50.914726   78.300499   40.099682
H   36.125282   32.027317   71.978790
