100
TIME:    1.497, STEP:  1497
H   16.086508   84.738846   97.775467
H   59.628471   85.910255   72.430565
H    5.486813   81.604485    5.762532
H   81.727875   70.973534   58.108913
H   81.762558   92.748680   25.114388
H    4.802541   99.586281   26.998373
H   74.511620   62.423611    7.520204
H    2.225052   18.111927   70.745186
H   16.828880   42.363007    5.855609
H   33.929863   37.878059   66.313042
H   61.007736   26.477329   95.551071
H   98.702164   98.727776   86.371269
H   48.037636   71.136757   76.338860
H   80.959114    0.461791   71.163246
H   98.708549   36.308399   78.813675
H   41.333633   80.797966    8.777007
H    3.710946   80.995987    9.653974
H   33.134575   21.901749   47.648239
H   68.577217   41.155083   42.229610
H   52.184944   74.022568   18.255320
H   75.442535    7.185685   16.613506
H    5.889939   46.075806   91.787941
H   65.756920   82.447212   89.518555
H   79.953987   54.635899   95.893448
H   76.042839   67.447975   47.607399
H   39.794842   83.002594   48.858383
H   32.990494   80.249405   29.672575
H    6.229838   26.314602   16.254854
H   43.721832   84.911713   86.408806
H   58.394772   53.789261    2.396224
H   74.989479   56.288284   90.952850
H   60.278660   11.153398   60.679283
H   75.805008   58.954506   32.658539
H   41.353493   36.531532    8.685381
H   43.561546   45.758492   15.885948
H    2.712693    2.080451   15.493283
H   23.381126   49.713234   26.422918
H    2.118752   31.554783   28.080692
H   83.421219   48.551460   98.645950
H   22.193106   72.039757   55.815807
H   32.937706    7.548943   77.613205
H   97.079346   79.044609   73.131714
H   24.135374   72.477005    9.603662
H   83.766045   37.859924   27.103075
H   26.802216   72.825302   84.212234
H   58.774143   91.469765   89.249886
H   51.887012    6.494483   40.414986
H   56.319363   10.796415   61.203808
H    8.790822    8.468483   84.758499
H   57.286671   53.534695   78.962242
H   43.430408   25.118082   69.200989
H   77.884560   24.828295   75.787247
H   39.933067   30.688843   15.925777
H   42.024723   82.781334   97.875870
H   21.583458   89.739929   13.109226
H   95.439316   10.958672   41.665390
H   91.155411   46.351799   98.364494
H   14.587461   35.514839   74.996048
H    8.342812    2.019840   96.557571
H   60.230831   42.852772   21.031334
H   54.132793    8.955384   97.678551
H   45.779694   14.011082   27.619919
H   75.774109    5.068778   30.858253
H   45.835991   49.937798   86.496788
H   91.740364   41.281300   34.973682
H    9.382202   67.852760   34.699673
H   67.461441    0.119187   39.338146
H   76.957680    3.151595   37.767857
H   31.512505   42.221451   66.344643
H   60.710281   23.437441   98.580872
H   74.495598   93.544487   44.193272
H   50.532085    1.842470   66.226189
H    9.384205   44.257786   23.363079
H   97.243065   54.647446   14.237434
H   34.348465   30.773752   14.880589
H   61.051945    3.515781   95.200920
H    2.872444   96.796860   17.522593
H    2.312113   52.836395   97.112732
H   33.308037   49.117039   34.381355
H   26.109940   27.423777   91.953377
H   40.177128   44.768810   69.460854
H   53.645191   54.004105   61.599319
H   12.517753   32.242279   72.481750
H   53.151089   40.261822   26.695564
H   79.437729   55.247055    2.635167
H   16.836308   64.044518   45.739555
H   67.135963   94.508820   94.925735
H   80.053909   85.441269   80.182121
H   86.748970   10.821929   15.951874
H   33.983307   47.685799   77.730827
H   85.285927   54.264256   65.075638
H   89.049797    8.094942   62.043945
H   81.334663   72.485153   34.727402
H   91.918190    4.036247   27.754070
H   30.710915   15.637024   50.485619
H   17.567688   36.615532   90.126785
H   43.777267   53.590176   51.095383
H   12.361619   28.983734   32.084801
H   37.398277   43.303272   19.654713
H   32.210159   40.251499   53.503487
