100
TIME:    4.384, STEP:  4384
H   20.850147   19.986084   95.132339
H   79.400276   42.426865   54.531937
H   55.111671   89.306908   71.883675
H   82.212448   52.029839   99.860237
H   55.903961   24.154436   46.835831
H   60.042248   96.458580   12.908051
H   23.205303   57.367458   33.287518
H   75.312538   67.872711    5.668943
H   45.860847   64.789658   24.129412
H   55.036980   79.331108   79.363098
H   92.466034   42.642170   17.460762
H   88.515038   43.437798   80.871376
H   64.315018   96.480415   89.405762
H   38.010582   91.563148   90.863968
H   33.827644   78.430969   40.037556
H   25.253601   28.288506   69.130798
H   71.571907   71.937302   72.481163
H   94.818642   81.506645   47.554668
H   13.550652   62.269676   94.329285
H   74.403679   12.716974   14.815683
H    4.123932   19.776028   38.254372
H   82.678696   49.903809   45.940170
H   27.211311   58.967430    6.918082
H   11.720436   89.260864   81.479263
H   72.787262   38.486725   68.916664
H   26.561575   97.052002   78.166512
H   84.041893   60.241329   86.953529
H   62.631626   61.070007   11.682128
H    6.496594   46.842556   49.937782
H   69.095322   82.335503   31.903515
H   88.593117   15.177573   62.530815
H   42.565563   31.386597   93.415230
H   79.160866   47.727715   92.742294
H   63.335999   71.955322   87.060753
H   71.796707   27.523460   91.683945
H   53.731129   28.802784    5.645286
H    0.282080   43.984848   53.907337
H   82.792946   78.723518   31.808178
H   60.024548   85.898308   19.470030
H   50.269203    1.767368   82.958679
H   35.635880    6.610997   45.630840
H   37.612198    8.613536    8.765650
H   49.002796   89.789490   18.135073
H   99.411514   86.241058    9.379399
H   76.375542   58.919136   31.261827
H   21.528072   46.534901    0.969254
H   75.984665   63.254723   67.549522
H   56.473545   40.523743   39.834984
H   93.180283   69.365936   69.596344
H   17.823208   97.459908   77.041115
H   43.210148   46.396828   99.641006
H   18.186640   56.937588   86.260315
H   99.808754   47.428650   48.253918
H   75.167442   35.676369   25.269711
H   91.734009   42.791645   37.635014
H   99.051590    7.922180   43.385101
H   74.177536   63.048241   72.942299
H   99.614151   62.872978    0.632493
H   36.033218   24.003887   74.921791
H   69.718933   64.758118   38.919197
H   36.247192   74.694725   72.583961
H   43.317894   87.136429   96.990967
H   71.691139    8.126502   32.846428
H   44.081200   65.644684    8.112354
H    6.330054   10.700829    3.831569
H   32.028938   24.331062    5.399927
H   35.832413   99.930054   78.721481
H   77.532829   68.262833   75.783150
H   75.401016   34.780045   85.275757
H   19.206560   68.646484   92.501678
H   82.820244   97.112152    9.557945
H   12.486658    6.028475   77.598381
H   21.146597    1.457272   49.344261
H   33.700954   71.952354   42.671227
H   73.540413   34.889339   33.735439
H   29.298044   88.546104    0.942594
H   64.994736   46.570774   68.582130
H   37.948620   64.062965   56.553116
H   71.740273   40.641537   66.599205
H   84.525482   70.193047   43.235649
H   96.661240   74.636154   42.009899
H   70.262764   72.858414   20.190256
H   95.171333   80.435303   47.454418
H   51.761520   87.307198   63.005226
H   38.865402   74.663765   22.772659
H   50.395939   70.087990   46.221542
H   59.952171   84.600403   32.589661
H   26.522615   54.300545   50.151283
H   46.664658   50.077812   92.335335
H   78.734482   28.905922   80.934021
H    3.433967   10.155632   26.043863
H    2.668258   25.199982   17.061861
H   66.476418   59.060165   58.025982
H   70.958725   79.155411   22.409624
H   80.793495   57.038460   16.826649
H   56.022018   22.611877   41.009758
H   14.621255   19.269176   85.060898
H   22.958044   53.564819   85.883675
H   99.869629   55.747997   77.831322
H   11.518877   66.130013   75.416061
