200
TIME:    0.845, STEP:   845
H   28.061426   60.467129   25.684702
H   33.356384   41.710468   14.458191
H    5.457402   95.618904   75.147697
H   38.235840   84.045143   28.679096
H    8.786703   99.062881   44.960056
H   69.936890   36.394344   47.642300
H   12.124595   54.874863   61.361607
H   16.446339   15.010417    3.597674
H   11.997635   78.436211   32.960449
H   89.564056   66.423599   72.208855
H   33.280991    7.518009   12.080238
H   33.279556   58.171162   41.569447
H   26.023151    7.087253   36.495689
H   75.808548   55.759464   71.419090
H   90.412674   76.601913   41.490002
H   11.665929    1.038840   41.271877
H   12.667393   36.053509   86.057823
H   22.196341   12.251816   32.749435
H   85.154854    7.799082   51.389988
H   91.981033   71.396263   14.017876
H   65.345703    6.959125   98.123009
H   76.560173   71.939445   47.260368
H   76.888260   58.142616   34.619568
H   21.422800   93.575043   89.688995
H   29.542809   37.036152   23.822330
H   18.160280   89.186150   86.974823
H   10.612024   70.936272   73.407043
H    8.395289   95.086975    2.323191
H   36.550026   38.140450   34.795750
H   65.710136   36.971870   77.697937
H   12.571616   76.725288   16.934492
H   20.924332   77.686020    8.498706
H   12.505112   22.003513   80.569023
H   76.403282   64.237976   48.865059
H   18.954639   64.801926   29.616554
H   13.298635   36.127663   86.413979
H    3.628900   61.370949   90.496864
H    2.989388   60.405128   87.965965
H   30.679085   24.736822   57.879719
H   84.280708   37.200581   40.063568
H   80.684326   76.961540   21.605572
H   43.452682   30.420261   21.891245
H   65.808609   73.883804   72.793304
H   35.933456   92.617973   40.385529
H   49.448612   94.753670   66.196571
H   32.545979   98.093521   49.267677
H   91.375137   96.571426    9.443294
H   75.386856   65.541374   25.898087
H   10.477874    5.793511   61.602524
H   40.467064   20.531740   80.117577
H   63.816223   62.838531    3.892286
H   98.011330   46.111187   76.549004
H   68.495201   77.120934   15.833680
H   13.402186   94.950958   90.662399
H   51.590530   62.929924   71.207047
H   97.550346   57.444675   98.459167
H    3.703917   19.034889   43.164799
H   74.018478   72.643684   94.383186
H   15.415058   86.164627   21.758869
H   29.110542   92.591957   55.810188
H   48.460117    3.572698   24.559874
H    0.810167   17.858084   53.704391
H   88.114906   37.738945   64.473923
H   38.785149   66.015488   17.175503
H   81.073830   85.098312   42.669544
H   15.006845   40.065453   43.738083
H   63.576271   10.400246   98.334663
H   93.953438   92.825432   99.249512
H   38.042099   14.028955   54.322220
H   41.754356   52.174744   50.950283
H   58.199757   87.056114   89.464279
H   15.137106    7.919596   40.529846
H   96.695450   36.122463   79.237083
H   27.575676   95.666458   78.186012
H   86.511826   10.665120   39.165642
H   68.605850   97.717636   58.924053
H   92.870438   52.472912   63.587799
H    4.147021   16.986660   27.279594
H   16.132938   56.644035   21.529541
H   59.158691   87.292809   65.569916
H   69.045700   19.876934   92.151566
H   53.239296   57.709511   69.154076
H    8.639317   20.302643   72.578186
H    4.945098   81.642845   13.569668
H   17.364048    5.721502   40.636868
H   41.711491   64.606339   15.188693
H   62.970638    4.044795    3.158355
H   70.300285   96.027206   34.261356
H   84.203903   73.529732   79.349548
H   20.413868   13.165723   48.209545
H   15.882129   40.115555   78.063484
H   79.841217   93.843613   11.568821
H   76.000832   10.038816   78.499107
H   32.898598   72.697922   85.716873
H   40.454437   48.742416   93.137344
H   44.217598   41.235851    0.615976
H   87.512459   93.352699   24.385040
H   94.285660   38.529903   55.151363
H   23.309029   63.717506   55.025280
H   77.723801    7.757854   27.398111
H   36.859219   97.153992   97.428413
H   13.068636   85.809669   62.527390
H   35.720482   15.059488   38.956856
H   50.946510   69.056503   14.188222
H   24.536747   19.522045   44.702309
H   11.375042   97.152351   15.565351
H   90.295502   36.918285   52.613991
H   61.185989   57.503307   95.347572
H   88.171738   32.452839   28.387424
H   23.801489   19.625044    8.498289
H   55.154461   90.809402    1.221513
H   10.286119   78.559021   97.402527
H   46.586208   87.295265   80.775772
H   61.174767    6.354332   59.353321
H   43.660820    7.161330    5.559387
H   89.348358   88.099663    6.227696
H    7.700289   16.961781   91.233017
H   37.701618   56.775208   21.885155
H   41.838062   80.427879   53.639412
H   86.748627   58.749752   71.912445
H   46.868965   25.779781   67.695038
H   92.185310   13.148022   65.984062
H   46.822273   96.306168   41.977112
H   95.163918   45.548130   91.371117
H   58.813271   93.973068   72.803711
H   69.887032   78.905266   13.850073
H   80.348412   52.014786   47.689667
H   62.195221   92.314995   40.112247
H   99.912979   30.584084   71.102921
H   97.069267   21.281790   76.808655
H   73.031067   63.583832   26.531803
H   58.477997   92.051895   23.594372
H   90.462196   12.029114    1.876165
H   71.254921   28.514481   57.152943
H   34.313473   90.430740   28.616020
H   46.244377    0.850389   74.768524
H   69.894341   88.106194   85.456650
H   96.378792   45.330856   73.639084
H   62.126907   52.794365   71.406998
H   43.775665   80.074562   78.646805
H   80.569481   45.277126   34.453140
H   29.386766   59.393185   60.350418
H   35.556896   67.895760   78.977867
H   29.990685    4.627662   88.149910
H   68.739784   49.702263   68.851791
H   68.107864   72.398621    0.870515
H   59.040184   94.128334   42.949982
H   26.132553   50.898285   65.353905
H   81.358978   39.532475   91.930092
H   28.747683   95.279984   67.356514
H   54.896290   71.584686   46.776878
H   59.254955   90.368835   29.192997
H    4.281322    9.216633   82.227028
H   25.902647   15.029765   61.001534
H   37.603073   69.857422   71.697922
H   81.462112   45.029034   72.675179
H   65.644119   79.027840   87.919479
H   54.647579   26.952904   23.898050
H   84.691895   99.454590   80.167786
H   56.896782   32.258606    1.458352
H   59.898769   59.830338   67.329880
H   15.197891   19.921030   30.302753
H   91.261604    8.192007   36.980492
H   33.482170   37.952736   45.315144
H   53.161377   42.617062   15.769097
H   22.337290   45.189171   58.994614
H   64.482010   87.781502   58.635330
H   24.160721   58.458790   73.030258
H    2.294147   26.202732   35.428349
H   54.082264    5.894127   83.590454
H   67.807068   12.828671   35.925301
H   25.262299   42.975315   59.315968
H   49.362415   51.457031   73.401016
H   63.775990   60.067799   88.275871
H   43.318512   90.485382   70.784348
H   19.583580   50.932331   23.876469
H   29.202591   71.821434   12.215214
H    7.092039    9.777832   72.616257
H   60.128883    7.314915   62.059479
H   57.521641   60.944893   94.919586
H   70.372246    6.870182   27.653055
H   31.430645   30.844570   91.702690
H   37.778046   89.528358   18.053307
H   64.656273   26.339813   99.447594
H   93.346718   62.093651   75.904312
H   11.925776   41.328827   86.982155
H   52.418427   94.161804   12.670517
H   61.355461   92.851387   46.696484
H   89.097298   63.871330   73.457855
H   60.615292   54.982258   73.346756
H   76.720985   11.007999   74.981087
H   42.693256    1.370679   16.918337
H   17.538898   31.917192   71.666382
H   24.534237   87.676292   45.505875
H   64.132812   27.232435   19.837267
H   76.805191   11.867997   21.277578
H   13.482781    2.056420   23.887007
H   11.326663   85.382065   29.904469
H    3.845500   13.304733   50.959343
H    1.697619   14.495410   89.343452
