100
TIME:    3.027, STEP:  3027
H   12.618828   44.429955   96.374710
H   17.068810   68.865295   68.942245
H   31.786161   91.678955   87.806725
H   81.984680    7.937246   74.243958
H   68.058487   15.384900   83.630707
H   81.081673   97.928719   78.520226
H   94.325722   65.736488   27.168282
H   81.970062   50.475239   30.264828
H   79.218498   95.259583    9.547609
H   92.121742   59.846596   26.223688
H   18.690857   88.040588   48.173176
H   40.309212   75.418610   77.464058
H   50.714188   78.569595   24.270050
H    5.201932   95.745796   87.595879
H   17.320217   99.643814    5.266369
H   79.815018   46.976654   81.773781
H   80.693764   82.182968   48.948101
H   65.829918   47.497704   94.602722
H   92.413429    5.338106   22.836817
H   10.967674   41.533085   22.424829
H   84.650253   54.870667   75.083420
H   52.581787   48.102371   61.501266
H   45.329216   70.003822   45.744904
H   37.800430   72.985809   82.262474
H   21.321079   46.103622   58.895164
H   32.779385   37.414768    5.451043
H    1.056814   16.647760   60.033978
H   77.131950   97.729851   66.830528
H   76.989807   23.725004   14.084509
H   17.062187   15.922128   24.026169
H   35.186298   93.492752   69.892342
H   56.883797   68.876472   19.039482
H   83.575531   47.012260   70.493019
H    5.998700   96.316353   44.227753
H    5.527645   30.102264    9.052475
H   35.740566   22.271166   10.234609
H   70.126961   93.679672   46.981014
H   38.879524    3.551551   36.048244
H   17.301094   15.464018   50.973267
H   78.083405   28.805391   76.192970
H   28.377367   60.045010   13.660695
H   59.571648   47.712639   45.011810
H   37.314159   81.651962   20.117310
H   86.065048   63.505447   76.697472
H   94.085930   12.462479   15.139441
H   39.035145   20.652180   95.459908
H   65.383102   89.455780   54.517807
H   56.401073   26.549093   55.871529
H   53.509987   81.753227   23.725279
H   89.366447   76.815849   71.951324
H   43.313679   77.406052   85.333038
H   52.238895   82.856461   75.345634
H   71.669060   39.560303   27.065502
H    6.597248   57.821625   65.389618
H   99.778549   23.862564   26.093969
H   97.353683    9.350719   89.580582
H   88.150597    2.203730   43.880394
H    0.659892   91.024551   35.588089
H   29.009850   66.666870   79.099342
H   59.266754   60.454403   77.515511
H   50.646400   37.802341   78.386642
H   91.480461   99.767197   58.394089
H   79.563942    0.725662   25.900009
H   50.898743   58.260628   44.958996
H   52.470325   19.082233   77.460304
H   15.391628   91.791786   25.164108
H   44.706947   53.012280   13.205649
H   71.270134   90.654053   10.910705
H    7.766347   32.285408   70.385475
H   91.712463    0.391217   95.359131
H   25.911949   89.442345   25.838177
H   24.377462   51.064926   78.245117
H    9.625200   68.577049   84.135002
H   63.578060   57.826035   23.304939
H    8.116162   32.953312   30.865578
H   97.215767    1.574446   92.251099
H   41.787022   64.187637   44.583668
H   74.194290   52.793316   81.610107
H    6.669537   44.627476   51.454414
H   51.075600   44.097355   60.142441
H   70.115921   60.597363   60.905369
H   68.444366   63.996170   33.662086
H    9.317133   57.782745   18.206547
H   58.401958   71.185883   86.947235
H    4.939064   59.545185   54.318703
H   81.625366   20.240356   51.987316
H   69.321205   83.265358   67.882339
H    4.682775   62.945450   64.262733
H   18.501778   25.633410    3.434996
H   98.710541   84.736282   32.426186
H   47.899933   36.881130   97.386429
H    2.258593   23.153627   91.202248
H   79.491226   18.341467   53.086998
H   39.799091   96.842232   30.914093
H    4.254327   78.589691   85.644615
H   43.939392   76.198555   11.100573
H   22.333275   41.393780   63.104073
H   17.978209   42.010773    7.601759
H   64.514153   49.898502   91.493355
H   27.229731    0.957546    6.138635
