100
TIME:    8.661, STEP:  8661
H   31.613541   27.766100   91.216629
H   61.280563   74.191864   24.208355
H   28.645548   97.011475   21.673168
H   82.930328   75.816948   65.425362
H   17.589125   66.974594   30.869133
H   93.708618   91.824989   36.473679
H   99.047859   46.170815   67.754646
H   39.148773   37.888241   12.968944
H   40.723961   53.572861   54.909054
H   38.197395   40.744129   46.833900
H   94.629913   14.736485    5.478506
H   25.274666   57.821743   76.429771
H   91.466339   37.748001   64.399963
H   26.240107   78.380257   16.345554
H   85.802498   96.389626   34.393158
H   53.283493   54.206261   14.102034
H   27.641029   54.827541   61.833351
H   86.272156   73.394753   99.294510
H   80.162796   41.693653   19.657375
H   59.170757   21.888109    6.013724
H   50.320702   93.986908   22.170206
H   92.718849   55.581589   81.714142
H   70.105370   24.186537   84.548462
H   14.325762   40.438934   63.834118
H   19.817410   99.298737    0.503152
H    6.769522   70.777206   75.843979
H   15.230860   82.449966   71.817368
H    1.752228   60.705906   53.060577
H   99.495552   34.885342   47.761467
H   33.093452   76.479568   71.913330
H   56.922115   98.704826   24.148323
H   12.618042   13.219080   97.471947
H   80.426407   34.801903   78.048233
H   44.050385   79.993774    6.877814
H   65.407341    3.910780   51.995731
H   25.523207   63.799004   92.197670
H   10.501939   87.349861   90.918358
H    6.017975    0.449607   33.623787
H   79.489037   92.709984    4.997440
H   47.423737    1.369000   19.463652
H   43.333130   53.360474   46.393887
H   70.311966   75.567276   22.120655
H   85.823761   15.442545   27.066364
H   26.310223   58.021431   27.561260
H    5.378596   90.178810   97.255913
H   66.325981   28.106899   18.347574
H    9.404872   95.852180    8.604315
H   56.716244   84.575485    4.471077
H   18.201012   15.146660   98.982086
H    7.578251   62.559399   77.956078
H   42.906887   33.480247   44.728256
H   26.053820   60.063259    5.495249
H   88.521935   72.228149   99.854660
H   76.121063   65.896637   14.002418
H   51.193398   17.613245   74.009506
H    4.383024    3.423192   97.785904
H   45.321037   39.637108   79.720573
H   81.140076   58.962730   90.466820
H   73.351509    4.726181   46.581169
H   87.482292   93.500824   17.271141
H    6.042745   75.793701   39.116032
H   91.522087   47.326706    3.471031
H   62.057232   16.271734   39.559692
H   37.775105   88.943161   91.992126
H   76.094177   69.105225    2.129727
H   69.290016   11.709355   58.290272
H   92.679855   47.794437   85.214767
H   82.091156   12.869035   80.248489
H   88.564789   27.462105   17.029228
H    5.925317   83.663773   83.473770
H   47.003185    6.105153   58.259621
H   60.054031   64.020897   90.893906
H   42.278137   89.902672   39.682392
H   39.545658    1.265758   88.546822
H   79.680496   41.068081   57.984470
H   30.408602   62.663162   13.154353
H   53.386551   76.169312   44.347130
H   38.885647   84.403786   92.761475
H   76.838921   28.078632   14.312988
H   74.781914   37.214195   74.768364
H   80.368767   18.884378   97.639084
H   91.210831    0.638991   62.423691
H   65.703072   51.960728   54.773685
H   46.011826   53.299904   72.368126
H   30.612152    7.123878    8.166807
H   51.960712   27.186039   43.229416
H   45.603458   73.626900   36.533165
H   95.321739   12.012005    5.776750
H   35.426273   11.941948   57.354988
H    0.589531   52.940712   33.827164
H   78.466484   41.099064   16.366600
H   19.125193   46.869125   98.556374
H   40.640217   87.389122   88.773010
H   84.317398   38.625721   10.796459
H    6.846343   73.930557   15.107201
H    9.284728   53.718262   20.097252
H   75.132988   64.715767   39.086891
H   21.559580   15.006967    5.010420
H   96.123131   74.202492   19.587589
H   77.178741   56.376431   63.399487
