100
TIME:    7.839, STEP:  7839
H   87.202873    3.147598   91.969193
H   83.982895   29.647816   72.380264
H   14.516169   37.872528   31.321659
H   82.792358    9.683205   10.479818
H   24.954840    1.087749   53.157394
H    6.454440   92.715523   55.069115
H   42.127880   90.664078    3.473176
H    3.756355   66.774040   88.442696
H   60.930290   32.605591    6.649371
H   60.648872   28.941423   14.647579
H   71.090347   81.661865   84.657150
H   56.650291   16.618893   34.939964
H   43.882774   87.501678   46.088360
H   66.940804   80.913887   53.792347
H   75.818489   69.814713   73.923126
H   86.333572   26.101501   82.335236
H   93.741188    0.460761   87.003448
H   68.699799   13.393124   27.787819
H   67.356674    7.207451   76.350082
H   81.319839   39.343128   50.048164
H   99.099358   75.820496   44.478825
H   13.912904   54.490372   51.715012
H   81.080254   30.868673    8.066613
H   90.701767   30.605440   24.881172
H   49.216255   64.489441   94.432716
H   10.645824   95.009750   53.198242
H   86.113373   16.618464   55.508564
H   71.108910   22.337713   25.887468
H   81.622169   60.307331   86.618828
H    1.575924   96.823868    6.566938
H   24.568876   24.994255   89.182350
H   60.716518   35.927876   73.568581
H   22.525213   94.944267    3.995983
H    9.317834   55.325111   41.506027
H   85.864525   66.147728    1.981979
H   54.068424   99.412521   94.781471
H   31.661427   17.454172   26.147734
H   39.991882   15.493130   75.617210
H   14.184283   10.619154   84.655220
H   24.847603   78.322769   54.791527
H   99.511993   25.158155   27.027922
H   39.585793   72.343796   80.154472
H   78.749664   10.511686   67.691536
H   78.796539   44.219688   47.190914
H   76.680046   22.606167   26.914719
H   76.937126   12.431628   15.008074
H    2.978665   51.149910    0.710298
H   56.666073   76.109146   53.610439
H   94.173653   83.224068   31.772530
H   90.321533   50.048031   35.429291
H   42.963329   12.838568   36.061234
H   86.103668   36.337627   59.455322
H   71.476372   67.461914   47.594368
H   95.160919   79.304810   77.730057
H   16.642040   45.577667   67.023209
H    3.359224    4.287856   25.768738
H   93.211014   63.355400    1.541491
H   42.347336   36.590874   11.639871
H    8.519306   69.994850    9.685833
H   41.725212   30.319775   40.650780
H   54.190929   14.022203    3.206672
H   20.696510   54.977768   40.664597
H    6.249799   72.363678   95.926697
H   81.330315   84.465408   14.308923
H   43.466606   34.756207   25.581160
H   19.785824   52.573387    9.687011
H   58.630951   19.377502   45.529583
H   38.872505   65.858147   40.952133
H   47.597740   86.525795   68.585541
H   89.230766   42.376408   85.217209
H   73.108681   62.036728   68.118202
H   27.745113   91.313866   30.642061
H   95.873199   30.563681   60.760441
H   57.638538   53.288464   37.386261
H   40.083115   39.857708   95.660049
H   10.974055    9.978760   68.462990
H   78.731163   47.315735   29.766691
H    0.270774   38.149364   47.359112
H   37.421364   30.493107    5.139553
H   15.093520   81.991722   45.584297
H   64.276451   10.380410   48.509232
H   29.529087   95.307678   31.193806
H   13.708516   38.213902   76.490234
H   89.460014   82.959229   47.445164
H   70.635986   58.543049   87.849953
H   70.879135   96.992874   86.147064
H   90.703865   33.393318   97.337029
H   82.101707   77.790039   14.299721
H   18.365662   57.709114   64.077888
H   73.266510   86.757950    4.443413
H   44.826893   96.715630   99.007126
H   58.305515   85.047333   82.890511
H   87.948593   62.729801   25.206484
H    4.875411   88.755943   55.370495
H   21.060322   47.560318   96.219116
H   41.390869   86.178833   62.554375
H   40.379082   17.543541   86.360420
H   23.146235   74.332191   21.513510
H   35.281029   70.652901   88.438652
H   26.121958   77.471024   42.584835
