200
TIME:    0.111, STEP:   111
H    5.507237   62.903118   13.133757
H   26.814503   30.994783   84.660294
H   20.841513   63.491844   38.994255
H   13.494171   75.465981   47.873013
H   16.579821   80.459763   55.513210
H   93.815186   56.316257   69.368095
H    1.490283   55.395660   47.154469
H   99.997803   83.315857   29.651283
H   82.189621   89.440163   50.866371
H   15.402264   76.705864    1.160653
H    7.697273   91.838448   88.885147
H   30.244370   38.579647    6.595643
H    8.008029   82.726646   66.578758
H   10.501244   52.662678   36.049648
H   25.850082   70.951538   43.295994
H   33.060493   31.281494   57.105808
H   78.138885    1.676843   21.695200
H   39.625477   76.965645   45.816978
H   60.733364   34.372028   40.584835
H   89.645844   81.476219   42.471401
H   56.536942   70.318687   31.750546
H   92.900902   43.883568   75.545845
H   98.868164   63.479393   52.231491
H    5.893667   86.911659   91.994720
H   97.639481    7.515678   50.013416
H   18.767878   56.611725   11.217115
H   96.397881   56.208332   43.895172
H   91.549835   64.807907    0.391841
H    5.635388   60.450752   39.093731
H   98.878792   17.308601    3.088104
H   13.529912   46.059818   16.037096
H   34.271873   60.482895   90.427139
H   30.240234    6.209748   71.603462
H    0.696061   63.437180   36.035515
H   54.179005   95.131393   35.200329
H   37.275074   52.863209   77.997238
H   82.561935   77.213280   84.986488
H   39.295914   41.418411   20.967531
H   57.844566   51.019920   41.564190
H   91.319878   40.218967   68.735443
H   80.465927   11.249846   97.242210
H    6.918454   45.811939   43.656200
H   79.024551   90.745331   45.538219
H   37.568649   56.969082   14.134690
H   24.369549   72.359367   39.708687
H   42.875134   17.195742   41.284912
H   77.543198   32.532169   93.350441
H   93.256378   65.552574   52.285172
H   82.091499   33.647533   61.073326
H   66.733459   17.219355   11.170114
H   81.276947   72.128891   32.981117
H   26.069410   33.477642   60.767696
H   48.698139   98.113937    6.240520
H   24.326506   79.461426   79.792847
H   82.659195   79.253853   94.945343
H    6.959343   75.528015   74.424072
H    5.798633   16.257301   51.038364
H   65.999313   55.580563    7.631731
H   30.903191   71.985489    4.006474
H   46.086868   96.713539   69.378929
H   50.837307   17.893230   46.005466
H   87.618919   16.119291   48.077560
H   67.893394   22.534142   89.237015
H   21.000490   64.968292    0.787327
H   69.274681   74.155960   12.654502
H   43.799923   11.549483   30.544540
H   90.993752   25.883032   83.169930
H   98.063820   91.156639   84.717575
H   11.934047    4.109998   63.612579
H   45.979538   39.381599   50.989483
H   58.521755   74.360970   69.830765
H   35.765762   27.212620   45.667824
H   73.399551   23.432919    3.815159
H    3.662738   11.800149   56.817444
H   77.574265   98.783226   73.678291
H   50.053131   23.630951   63.720432
H   95.972824   25.147833   73.970268
H   31.333246    3.620913   52.378685
H   10.549812   23.945992   37.795567
H   70.219872   91.386391    0.379372
H   37.893040   32.282249    3.048429
H   20.964315   70.909988   91.845177
H   11.503004   12.251279   94.054092
H   28.880749   57.641350   89.647064
H   43.501934   97.959763   61.437977
H   21.032839   90.287827   30.468189
H   30.073584    2.515302    1.475589
H   76.404259   23.345478    6.576609
H   61.742023   71.729820   76.696869
H   24.090252   80.265030   56.284710
H   46.650299   33.779182   81.328270
H   84.953995   87.403641   95.553055
H   41.131622   18.316980   99.403816
H   65.812607   99.068207   65.562561
H   21.856153   58.671173   62.567078
H   74.614265   24.825123   35.126884
H   77.555702   18.741007   92.773460
H   10.440983   26.434156   47.372189
H   39.940956   71.070274   52.424091
H   64.961456   95.831055   27.218912
H    4.110775   76.859680   62.865269
H   85.775352   74.704918   66.576172
H   20.505346   41.884232   28.700048
H   15.677216   67.701309   85.039650
H   25.509743   29.168003   20.905212
H   82.316132   33.088730   49.930264
H   59.547459   28.495008   56.859589
H   65.510994   29.321430   23.729736
H   69.518219   41.717999   92.894783
H    0.222815   29.858999    4.905905
H   45.497303   97.187775    0.705090
H   80.814156   60.100910   89.041763
H   59.334553   78.777702   96.741302
H   63.661156   22.178427   78.280548
H   68.155113   76.596848   31.295759
H   19.302982    9.571196   73.114861
H   37.878750    6.626215   82.676254
H   41.425602   20.646965   36.557091
H   13.963281   52.870403   89.915253
H   67.378311   44.100216   44.530552
H   39.208199   20.902203   91.746933
H   23.855194   30.535946   44.393612
H   29.126348   27.263180   20.202366
H    5.977909   71.961258   23.514219
H   80.776375   12.145995   97.079651
H   42.996258   58.822624   28.022129
H   98.593132   48.587601   76.036743
H   78.250351   86.558220   33.913074
H   90.880219   57.153168   87.830048
H   61.492622   24.760775   64.303909
H   43.401596   89.791718   98.481544
H   86.651474   84.771927    6.284883
H   92.858986   76.318542   96.415565
H    7.246107    9.695457   48.119099
H   98.053398    3.702620   62.344673
H   65.793892    1.792410   85.582077
H   68.679146   86.235802   48.916809
H   90.118019   68.248238   85.236633
H   42.941391   42.529610   71.580597
H   43.378067   15.276930   99.041916
H   44.231236   66.862602   10.742998
H   63.176910   37.091282   43.239693
H   59.152393   54.386627    3.735272
H   63.624138   31.197439   75.986763
H   34.238331   74.045357   44.850300
H   41.213551   59.752934   36.024433
H   41.680260   97.342720   48.205559
H   46.174866   78.220566   69.565086
H   61.736668   70.177780   99.226860
H    5.332072   87.238625   94.820297
H   80.767189   59.119137   52.318054
H   28.357254   10.679104   52.194897
H   70.183006   36.662113    7.993298
H    6.499790   98.181465   79.140320
H    8.497200   50.472260   58.419201
H   59.672607   43.209042   50.092205
H   57.960949   57.015221   79.228317
H   44.212025   38.729652    6.701899
H   18.285894    2.220400    7.388765
H   65.125565   62.207275   73.290588
H   52.688801   89.650208   86.845795
H   49.660824   23.724813   36.661526
H   59.666546   40.194111   37.285690
H    6.539609   16.390030   76.718140
H   60.189346   17.711168    8.557029
H    9.691144   68.543327   63.006996
H   77.121155   99.653450   50.854164
H   23.519524   25.063335   42.678394
H   92.320114   28.589722   37.161541
H   20.586010   11.433203   91.856018
H   81.829407    4.099710   35.986900
H   50.619362   70.238159   57.061977
H   35.180477   82.997208   94.053726
H   72.810844   77.636612   71.255966
H   77.433563   96.006958    5.296614
H   96.924400   46.964043   23.162983
H   36.742958   48.891376   81.511642
H    0.586706    9.077835   63.230694
H   78.900581   24.378397   70.643608
H   92.436966   53.071327   84.565231
H   83.772987   80.566666   44.718624
H   16.625710   29.948574   64.906807
H   71.573761   90.299606    3.516857
H   48.672035   24.981426   72.444511
H   83.854759   93.929512   78.928299
H   96.559807   35.135254   83.308571
H   26.860420    6.734262   96.407059
H   96.618507   61.760521   21.012796
H   10.354124   60.598145   65.069092
H   47.267750   58.975040   64.073196
H   41.657753   35.292294   80.222664
H   48.710430   81.423508   26.267496
H    1.235084   14.455068   54.851177
H   37.357365   58.382282   30.713417
H   89.321503   60.017288   22.238256
H   75.013199   10.066905   31.333735
H    8.603803   82.041908   99.112686
H   32.658566   99.970001   50.604778
H   13.633554   11.250942   83.786400
H    9.353250   39.363045   99.541008
