100
TIME:    0.929, STEP:   929
H   54.497719   36.827217   98.295486
H   75.428398   55.115185   36.601223
H   95.725952   40.739620   12.431885
H   81.632538   94.374413   89.241570
H   86.850082   47.220970   40.515633
H   13.610569    0.202562   70.748253
H    4.282342   24.067839   63.101780
H   46.868729   68.971390   22.896049
H   30.791405   96.973724   41.610008
H   49.452446   29.723026   44.069656
H   13.841705    3.622958   50.263062
H   20.382343   70.256706   26.801435
H   84.168411    5.501530   32.794106
H    9.083157    2.212947   27.937344
H   91.800957   87.042603    6.115404
H   64.171158   30.479809   55.925278
H   49.376320   43.433243   57.938347
H   20.996452   49.523453   67.339645
H   59.730309   17.325190   12.306818
H   67.502205   86.054474   79.566292
H    9.148361   63.733467   32.029915
H   51.426441   45.326111   40.153080
H   73.340538   87.066719    5.769554
H   32.727386   47.823643   38.079277
H   96.358269   12.497814   43.416908
H   42.399273   99.929230    2.098364
H   81.970413    3.858773   18.401152
H   54.153992   99.801773   97.480453
H   31.371368   33.377781   13.258228
H   36.614620   67.847122   57.241299
H   52.645969    5.351266   35.898399
H   24.414648   26.845322   13.261864
H   35.795116    0.512711   81.488609
H   17.354591   88.585487   32.613167
H   57.680077   88.694771   81.297958
H   53.328064   57.462658   17.447775
H   68.901421   70.514015   81.666939
H   25.593941   41.950840   87.998558
H    8.955191   60.676582   53.087296
H   75.691460   25.213110   11.125475
H   71.753693   88.057915   64.231369
H   48.127953   53.553207   46.446049
H   19.242857   69.070877   68.574776
H   20.036329   28.340067   71.566048
H   76.071022   95.238144   35.605209
H   66.086617   80.668266   86.961372
H   45.889454   75.855865   35.561470
H   56.289028    4.948362   26.059156
H   92.186943   55.508583    7.415034
H   45.373890   44.889370   18.689774
H   43.473743   79.954414   63.212101
H   50.280190   77.535202   13.074081
H   28.150293   27.395386   48.915627
H   55.176884   92.046349   72.810928
H   66.803223   39.945965    8.289295
H   94.728622   11.555611   61.001450
H   55.145126   62.741081   44.343132
H   56.883240   89.154854   89.625931
H   63.543953   78.020828   40.163616
H   97.715134   99.192886   37.186607
H   18.302618   35.368332   41.963158
H   65.939117   19.298355   53.321884
H   37.246323   43.803032   69.825050
H    6.831574   46.848015    1.915907
H   69.197517   86.646507   82.077477
H   44.275307   96.089821    1.115560
H   13.033087   80.479797   11.914196
H   16.193596   70.667526   10.614173
H    3.202181   83.034317    1.966175
H   49.204849   94.868797   99.776917
H   92.531609   32.192425   51.005527
H   97.367264   20.693993   24.638239
H   46.419586   72.353127   37.927959
H    9.743470   90.590591   47.995369
H    6.963460   29.965555   71.822319
H   47.622440   67.114159   33.420017
H   51.302639   46.026726    7.472418
H   75.626434   89.975761   65.746887
H    6.080721   50.781101   28.047138
H   53.965652   58.360283   40.886932
H   29.061710   38.892590   35.512249
H   11.026325   50.294632    9.095057
H   76.576607   22.762701   18.382389
H   14.076010   91.657326   78.576180
H    7.094480   90.774124   57.696312
H   29.910465   43.178745    6.295807
H   29.200537   35.807060   67.841385
H   70.910233   30.915878   86.084343
H   74.961861   42.446510   20.599537
H   84.200851   71.057648   57.424068
H   62.041050   23.595510   53.080517
H   47.023548   65.375740   51.223206
H   44.889961   55.465355   90.784569
H   37.019333   69.584663   89.456306
H   40.530903   66.516388   37.433128
H   70.653168   59.045708   19.465111
H   88.862961   20.993620   83.761276
H   10.276124   24.147552   41.172142
H   64.456627   40.854847   67.232460
H   96.935471   54.842381    8.209766
