100
TIME:    2.658, STEP:  2658
H   37.572174   78.269218   96.712540
H   27.333199   48.858025   45.665791
H   25.443411   65.131180   92.136574
H   81.922745   23.140985   94.468689
H   71.363586   85.807938   93.636093
H   86.802254   98.328484   41.976627
H   13.665113   40.818939   98.311913
H   10.972740   18.553156   64.146309
H   88.289223   30.737625   32.775043
H    2.205645   54.548302   11.773028
H   53.014343   73.192978   83.717224
H   54.393890   56.922440    3.730137
H   74.186119    0.894525   60.944565
H   23.472466   96.883156   59.516163
H   12.831306   32.603607   23.004202
H   94.651367   79.250641   12.404142
H   10.366630   57.775497   15.356576
H   57.945068   65.442085    7.396019
H   86.664696   89.859024    3.397462
H   20.908310   49.367916   97.301674
H    6.547158   91.604706   85.100067
H   17.205399   47.612518   92.925049
H   50.255898   73.004875   56.302078
H   72.084503   68.560242    9.666911
H   34.517815   75.369202   56.172821
H   34.471348   48.408306   40.037239
H   32.876190   31.986631   52.711521
H    8.268015   80.506172   54.632717
H   68.966354   90.246773   31.526369
H    2.913527   25.054794   94.692375
H   20.663542   60.402653   99.086449
H   33.584816   79.073296   53.199684
H   57.584476   74.010475   37.250587
H   90.407585   30.132828   59.773544
H   14.700517   57.995728   86.582298
H    3.656776   93.284233   11.502877
H   34.736008    7.193560   17.905149
H   54.129715   10.305096   10.009867
H   32.877853   23.502954   86.732529
H   12.839895   63.351151   47.160511
H   53.595028   47.384846    4.966928
H   92.735252   31.150543   27.675875
H   34.135746   79.439178   93.463890
H    9.628206   57.320351   40.619095
H   26.094133   27.020290   83.562965
H   43.795727   13.614063   93.962196
H   62.498829   69.388702   50.973412
H   56.381367   22.749918   33.039879
H   42.724777   12.314480   38.445412
H   81.630150   71.202248   97.761505
H   43.341831   13.030676   81.442368
H   34.305775   17.096275   99.568016
H   64.017220   37.420715   48.497650
H   15.141521   63.843437   49.106232
H   29.156876   91.519470   22.959669
H   96.891983    9.738520    2.142212
H   64.755898   12.851666    8.785385
H   28.136322   25.872478   45.092361
H   99.908607   51.076031    7.426722
H   83.618088   32.090794   88.010750
H   27.369661   54.961269    7.157929
H    4.576496    3.202440   75.089447
H   54.524059   25.897860   51.209152
H   25.559065   56.253357   54.978458
H   37.822598   48.554432   43.095695
H   38.059975   10.135811    3.346947
H   74.312080   40.256397   95.389847
H   96.759377   69.550964   93.270370
H   89.376152   58.799400   93.526802
H   84.235168   81.833076   96.136139
H   37.629738   14.549150   30.265152
H   54.802185   63.311249   51.228683
H   33.685608   86.831108   93.594231
H   71.697380   81.176437   45.235710
H   90.324608   32.426861    2.891944
H   88.494133   77.926262   17.080242
H    8.283770   96.168839   38.057926
H   56.857998   76.921288   61.232967
H   88.973785   45.711346   47.335709
H   69.172005   64.195374   91.932205
H   62.897198   56.779888   38.850727
H   40.756866   61.586319   64.517189
H   85.972244   51.622986   83.061310
H   33.016880   39.610077   20.650848
H   22.907001   82.625122   90.089226
H   90.116150    6.686352   26.362942
H   44.676537   10.094681   50.287048
H   98.743713   92.488647   68.102730
H   10.843372   46.178642    6.453996
H   31.335300   99.916092   19.235394
H   32.798950   16.956566   89.593826
H   74.956161   95.404594   84.169762
H   55.826267    7.276968   24.545570
H    4.132929   74.461021    6.034380
H   10.634876   11.641594   77.165092
H   13.461532   90.770271   30.159973
H   51.622635   20.217495   84.325401
H   16.624075   38.868958   13.506035
H   82.092552   48.307888   22.402367
H    4.312088   10.430323   41.682526
