100
TIME:    9.070, STEP:  9070
H    3.955337   90.259529   90.842178
H   49.984634   96.353104   49.998173
H   35.675861   26.435680   16.872398
H   82.998978   58.966667   43.005325
H   13.924189   99.757751   19.780712
H   87.367920   91.381889   76.978882
H   77.610558   73.788567   99.738976
H    7.002182   73.271530   75.416969
H   30.669960   14.248628   29.162622
H   27.025587   46.616764   62.847908
H   56.585724   31.192093   66.080223
H    9.663193   78.322914   47.316231
H   65.385849   12.993595   23.756115
H    5.989739   77.119606   47.471767
H   90.770210   59.855721   14.725136
H   36.838867   18.433739   80.151428
H   94.751472   81.880547   99.066231
H   95.021378   53.492699   85.115311
H   86.534698   58.852856   41.203892
H   48.152546   13.202414   33.860344
H   26.050056   53.270813   11.069202
H   31.930079   56.124542   46.883987
H   64.644630   20.861727   72.846878
H   76.324646   45.331757   33.456806
H    5.189853   66.865067    3.522307
H    4.840321   58.719894   37.354527
H   79.963158   65.449905   79.930466
H   67.240479   79.796646   66.580772
H    8.389222   71.993401   28.427620
H   48.776695   66.356918    4.427955
H   73.018623   35.380352   91.789566
H   38.442554    1.919461   59.608742
H    9.234894    4.878427   14.894185
H   61.331284   42.511261   89.647346
H   55.228523   72.943733   76.879486
H   61.077015   95.833282   90.912056
H   49.729622   72.371834   23.145712
H   89.112328   92.966682   62.484573
H   62.226536   83.798058   65.362015
H    8.901186   63.081261   51.643959
H   15.381315   67.393768   56.029751
H   35.843781   77.171173   43.000141
H   89.343597   17.896580   56.607403
H    0.195497   64.889076   67.549751
H   69.899689   74.046227   32.256283
H   61.047974   35.907177   20.009199
H   12.602525   18.095850   12.532146
H   56.741207   88.788055   29.777348
H   30.155350   81.272682   82.668518
H   16.163298   68.787041   49.358929
H   42.878803   93.993156   49.040680
H   45.931377   22.109970   78.646919
H   97.003242   74.599670   76.102005
H   66.647461   59.222939   32.049385
H   18.628029   53.456909   77.485657
H    4.892433    2.992964   83.862579
H   71.249496   27.835670   18.620062
H   50.684753   20.337671   79.932274
H    5.610209   22.008715   15.181196
H   60.491047   24.938351    5.638206
H   31.843657   56.772793    7.228334
H   77.005882   43.519791   84.966515
H   89.822968   88.362206   11.513336
H   65.861816   91.171143   80.889664
H   92.326614   36.438007   40.218601
H   44.164375   91.377129   82.473549
H   59.865494   61.933071    4.961131
H   53.838852   36.260994   99.801056
H    8.948536   98.073990   91.377747
H   14.231978    4.208149   82.606293
H   34.012867   78.276772   53.354317
H   26.375051   50.440819   20.873508
H   15.610996   69.669853   29.194653
H   30.543240   75.378822   64.244972
H   99.382843   41.670322   88.995224
H   40.078789   88.874870   85.633255
H   90.532059   40.769192   51.602112
H   58.098087   57.661766   15.351348
H   96.453896   26.877270   18.877878
H   54.723839   14.933222   39.532555
H   88.375771   23.115671   22.084953
H   21.901890    3.294081   28.208086
H   91.571373   58.800694   93.723534
H   74.149803   88.298561   35.012852
H   10.697617   81.537094   68.518890
H   42.546398   42.210373   71.631500
H   72.919640   43.889275   56.035805
H    1.899447   79.284706    1.536199
H   43.913822   89.169548   54.009895
H   64.430038   36.112274   48.446342
H   95.204430   63.182293   25.003929
H   49.387051   77.630249    6.348872
H   66.858002   99.658623   20.401606
H   23.845892   63.439320   38.373699
H   99.774307   37.294521   24.504427
H   43.066422   37.566956   98.971405
H   42.668114   88.187584   15.564072
H   20.770113   35.244213   96.798424
H   76.639214   75.968651   85.329826
H    2.584984   45.882450   23.997913
