100
TIME:    6.174, STEP:  6174
H   99.800369   55.834892   93.493546
H   29.963608   39.424313   67.397255
H   85.889740   18.086193   50.871265
H   82.512894   78.281158    1.744068
H   39.871094   67.630753   98.303650
H   32.278347   94.519341   90.178185
H   29.391331   78.236153   73.267921
H   34.622070   22.731670   41.317989
H    1.859190   92.688370   11.455117
H    6.126245    5.033226   49.454807
H   25.964584   14.666618   45.038361
H   20.195885   33.161167   53.456779
H   50.091110   88.236046   11.541924
H   49.381020   86.045876   27.084133
H   55.595406   18.540710   53.994061
H   53.280975   71.728371   20.545097
H   27.630867   90.333229   35.431923
H   33.095127   94.412384   85.502480
H   41.428326   37.360680   88.632721
H   26.179222   74.699257   36.687218
H   97.902817   41.576466   89.670403
H   54.287735   52.280060   93.505173
H    3.310730   44.409477   55.705307
H   45.404591   10.687227   48.538921
H    8.767138   96.529984   82.136269
H   18.401747   44.141144    9.842514
H   29.687618   85.831375   22.468214
H   11.597951   44.621147   70.854416
H   45.418785    9.245792   65.323822
H   37.731037   38.033440   74.203995
H   59.043022   75.689568   20.911705
H   55.587345   81.930176   27.705925
H    5.244799   16.763132   53.999634
H   38.968513    7.912483   11.650763
H   27.302490   92.211632    0.680953
H    9.333088   69.002876    0.015090
H   71.965279   78.429810   94.952492
H    8.810802   45.967434   58.122440
H   84.465881   46.895012   46.005592
H   81.671326   34.193913   23.791525
H   13.302635   68.025734   87.802467
H   79.902832   65.814484   95.153679
H   64.420746    0.523781   47.428162
H   85.112900   16.273214   84.396690
H   21.107334   88.297775   84.435898
H   98.430504   80.676437    8.243757
H   89.969040   60.601212   84.729546
H   56.569141   58.960175   50.590046
H   45.500809   21.119492   98.189651
H   55.366177   24.703833   51.846413
H   43.077656   73.583557   18.510651
H    5.177797   90.838348   68.751442
H   36.939823   57.807678   44.292904
H   33.715935    6.465981    4.258639
H   49.212120   99.664230   52.862141
H    1.285469    6.039274   82.449265
H   87.656792   11.398614   43.186287
H   66.326813   93.829109   54.527695
H   77.206604   99.635124   37.504265
H   51.597580    2.341351   88.007347
H   49.161549   91.452530   33.022251
H   79.790596   70.475357   15.999139
H   93.213127   85.980141   10.100739
H   66.998398   75.395508   59.518574
H   77.380432   67.738083   70.526695
H   22.067810   35.345146   11.238751
H   92.216537   61.811062   65.142960
H   53.885384   70.634865   61.355503
H   64.615334    6.162056   73.011047
H   55.467285   58.677834   88.732452
H   25.980682   75.322006   88.087227
H   64.891495   46.622009    8.652774
H    4.434443   12.915878    3.444385
H   94.297020   58.665524   36.314842
H   59.842815   37.443127   69.429092
H   71.617439    3.267748   80.497131
H   27.514046   91.425026    0.238324
H   22.046078   47.018089   55.407936
H   57.577122   35.383739   86.565178
H   96.746750   72.692543   89.025627
H   31.687967   93.154526   48.994267
H    4.588769   84.510040   70.485893
H    8.393312   10.369697   17.923599
H   74.910210   40.481956   99.518303
H   51.706871   62.699310   49.252289
H    9.193928   35.835060   70.524475
H   79.502220   54.452690   17.943640
H   55.323906   11.023596   31.563019
H   83.810654   50.413506   77.695442
H   20.473883   55.262463   44.922104
H   76.688164    6.810530   63.845379
H   35.112377   59.823044   51.163704
H   81.218842   12.769132   96.449478
H   43.960392   87.742622   43.102295
H   49.847603   96.699631   57.957859
H    3.868680   51.926788   48.553879
H   72.539330   21.993311   82.116791
H   26.360079   91.948441   54.936943
H   14.597774   63.463985   27.899887
H   22.702417   20.200428    2.978886
