100
TIME:    4.714, STEP:  4714
H   98.534340   89.723579   94.830215
H   70.286201   60.310089   75.339355
H   60.784050   13.048152   68.011452
H   82.267838   38.434258   81.773079
H   52.948181   50.605392   37.887924
H   54.923763   96.101067   45.589642
H    5.910292   79.649857   59.093945
H   49.375191   96.423431   75.370583
H   37.748817   33.061600    3.356743
H   46.018578   84.069420   92.283936
H   61.770233   55.920521   85.672989
H   75.921501   59.979088   57.381233
H   43.256973   76.525124   56.615234
H   21.671505   90.545998   15.977084
H   37.840858   48.953735   24.174149
H   11.984062   99.425247   41.738220
H   45.035347   93.765762    2.522367
H    1.873781   65.448845   36.114208
H   18.690536   76.112305   11.714937
H   65.511162    5.708956   37.283638
H   84.541283   86.923615   29.298531
H   14.316116   50.341888   17.837601
H   22.805336   56.283562   97.476242
H   81.059799   93.218689   56.971245
H   60.984283   12.315231   71.353798
H   25.057249   87.298431   47.134708
H   55.586098   46.522381   93.499550
H   34.788380   76.473297   22.591074
H   13.672669   76.783043   34.338112
H   81.749283   74.168083   58.137947
H    1.579631   44.768803   36.422264
H   63.402050   22.270004   62.865456
H    2.404467   23.583410   22.471304
H   77.279022   41.712708   73.158012
H   63.594040    2.577747   11.778763
H   82.417801   54.649494    4.607049
H   31.933271   31.899876   79.910141
H   69.152046   72.686073   55.094387
H   46.094112   78.707756   87.490906
H   19.187674   70.875084    8.921640
H   13.083378   17.933134   53.405499
H    7.953250   23.424314   24.268099
H   51.845280   91.768402   41.970871
H   78.338364   91.769928   41.645363
H   47.750721   45.900108   59.500385
H   17.270641   52.829151    2.310776
H   78.562790   81.200890   70.716789
H   56.491169   43.922638   60.253532
H    2.827453   42.035809   56.432358
H   24.744366    2.481444   53.959938
H   43.184971   14.537159    3.119908
H   34.223305   26.315035   64.598022
H    6.653908   49.342102   29.086859
H   67.523705   30.291008   39.831505
H   65.459290   71.713142   40.442249
H   99.464493    7.575052   32.151123
H   95.099625   53.526299    4.328021
H   75.041397   31.708872   92.132675
H   62.058685   37.947632   49.587257
H   47.942684   90.121429   29.533211
H   57.063538   59.347591   46.854744
H   31.605597   84.064835   82.061005
H   94.093636   85.607956   10.217339
H   66.742714   67.442322   99.152100
H   19.428431   84.344940   34.563770
H   11.757042    7.926023   24.911795
H    9.355200   11.338609   94.653488
H   54.737572   87.135513   91.559059
H   91.846634   11.068344   64.580261
H   25.892313   85.243164   91.806793
H   72.341576   74.659302    5.599053
H   85.276154   95.076294    1.758335
H   99.629181   85.132729   40.882271
H   26.434872   51.068989   23.063377
H   89.452278   35.360149   58.751308
H   37.100395    9.695482   78.736557
H   94.955368   17.967800   74.418159
H   53.452618   42.483761   74.777260
H   87.566536   39.672222   70.280083
H   68.341705   52.220051   14.805805
H    3.117665   78.050156   61.733562
H   95.021828   75.013565   92.595360
H   16.045023   85.954041   78.881714
H   74.464783   15.546074   32.865837
H   22.796717   54.022438   90.783058
H   42.800037   82.208199   69.137650
H   81.992119   60.606720   48.325287
H   31.833704   27.879995   46.719658
H   53.512802   31.703657   89.636360
H   49.558125   15.327965   92.731964
H   16.939018   27.974655   33.012859
H   27.087145   50.016953   23.349817
H   87.630135   68.963539   83.545395
H    2.853136   99.171127   44.659084
H   75.088387   27.478142   24.408703
H   83.278641    9.581209   23.964928
H   88.427452   38.207317   66.082474
H   24.169058   56.374573   80.601540
H   84.149109   57.170498   50.190750
H   32.015614   57.662357   43.625965
