100
TIME:    0.934, STEP:   934
H   54.159584   36.368690   98.290909
H   75.289314   55.386295   36.916622
H   95.811859   41.099346   12.373177
H   81.633377   94.168419   88.967522
H   86.805298   47.621742   40.380058
H   13.533035    0.197121   71.243401
H    4.020296   24.405478   63.492786
H   46.475739   69.403976   22.436951
H   30.668495   96.492996   41.295258
H   49.315804   29.794800   44.265465
H   13.376617    3.824138   49.781456
H   20.191494   70.507332   26.445543
H   83.850342    5.199015   32.297165
H    8.835592    2.197531   28.317860
H   91.861763   86.595978    5.875050
H   63.970123   30.042454   55.510239
H   48.974327   43.763901   58.393593
H   21.103302   49.280304   67.166306
H   59.808167   17.534960   12.570223
H   67.366859   85.949646   79.907402
H    8.851654   63.235687   31.894211
H   51.905872   45.332710   39.727322
H   73.273781   87.026054    5.626493
H   32.262833   47.883610   37.707916
H   96.179436   12.101276   43.453796
H   42.376347   99.780228    1.629717
H   81.539276    3.650923   18.500372
H   53.732124    0.035156   97.645706
H   31.480087   33.831425   13.021889
H   36.806347   67.723373   57.638790
H   52.842655    5.799660   35.502739
H   24.730352   26.707191   12.798988
H   36.147327    0.146897   81.939049
H   17.565849   88.127266   32.402519
H   57.555794   88.316811   81.602448
H   53.762787   57.855419   17.430571
H   69.381004   70.330910   82.060921
H   25.387299   41.859325   88.351418
H    8.730400   60.569847   52.608055
H   75.220497   24.745028   11.518866
H   71.411972   88.229500   64.349167
H   47.678581   53.777626   46.680958
H   19.285925   69.100861   68.935951
H   19.717058   28.423857   72.054939
H   75.637291   95.040848   36.033104
H   66.022758   80.762260   86.980980
H   45.942249   76.125565   35.604195
H   56.289295    4.999841   26.368528
H   92.333122   55.094498    7.215573
H   45.478756   44.965473   18.340080
H   43.473362   79.471703   63.264820
H   50.523186   77.071259   12.745827
H   28.254015   27.424377   48.625214
H   55.061108   91.964790   73.031570
H   66.405197   40.384312    8.331724
H   94.734879   11.550356   60.831238
H   55.462090   62.596809   44.818672
H   56.510925   88.682671   89.497147
H   63.938278   78.232086   39.779743
H   97.385162   99.577179   37.044395
H   18.618036   35.135826   41.573334
H   65.761658   19.251816   53.095634
H   37.585487   43.462074   69.482033
H    7.174921   46.875214    1.780142
H   69.395958   86.247185   82.543098
H   43.968147   95.841255    1.411190
H   12.631914   80.652679   12.155609
H   15.848208   70.953476   10.853202
H    3.451388   82.675049    1.652577
H   49.306129   95.120262   99.766388
H   92.372841   31.852201   50.945560
H   96.954971   20.528053   25.004316
H   46.093582   72.105782   37.799747
H    9.633426   90.274200   47.698204
H    7.204525   29.972670   72.201347
H   47.740658   67.434593   33.083599
H   51.756626   45.593376    7.560890
H   75.861343   89.648842   66.022995
H    6.320394   50.766453   28.102890
H   53.720444   58.087952   40.456177
H   29.159557   38.944317   35.811092
H   11.401482   50.327286    8.676937
H   76.892998   22.846148   18.858616
H   14.419971   92.085182   78.119484
H    6.851011   90.461395   57.211617
H   29.795376   43.362423    6.643030
H   29.534475   35.443520   68.079803
H   70.990723   30.515583   86.032387
H   75.065620   42.168114   20.558624
H   83.758804   70.851883   57.602825
H   62.245670   23.865496   53.186108
H   47.393497   65.751793   51.318459
H   45.210777   55.615158   91.171379
H   37.502617   69.887932   89.793449
H   40.444462   66.068542   37.548027
H   71.066147   58.848259   19.206856
H   88.466080   21.280561   83.473724
H   10.294482   24.190125   41.092148
H   64.218437   40.876400   66.813606
H   97.245987   54.713940    7.728187
