100
TIME:    2.134, STEP:  2134
H   73.008698   26.322556   97.192276
H   41.909187   20.446455   12.612062
H   16.436361   27.432140   98.285194
H   81.834793   44.729942   23.190971
H   76.057007   43.807026    7.843729
H   94.925789   98.896172   90.082848
H   41.127270    5.434649   57.334435
H   52.158104   73.219421   12.256632
H    1.170157   81.117935   65.760704
H   16.523775   47.024437   91.254173
H    1.755550   52.108570   34.192028
H   74.392822   30.656878   41.028175
H    7.519225   32.597557   13.027008
H   49.418205   98.498268   19.638081
H    6.456931   79.409882   48.193642
H   15.721127   25.081795   55.901138
H   52.497040   23.121834   67.648560
H   46.747223   90.924080   25.564034
H   78.501183   67.879105   75.789093
H   35.024551   60.493801   61.625282
H   37.642044   43.771336   99.324249
H   66.969009   46.916901   37.548447
H   57.252052   77.266533   71.293839
H   20.769829   62.275700   48.585358
H   53.259514   16.928734   52.306946
H   36.874027   64.019730   89.152290
H   78.062111   53.770657   42.313236
H   52.480614   56.047619   37.310238
H   57.572617   42.704903   56.296715
H   82.820747   38.023666   53.035275
H    0.047253   13.412382   40.547977
H    0.499380   93.553337    1.709014
H   20.673378   12.348858   90.044525
H   68.267754   78.154434   81.849411
H   27.727257   97.605957   54.673004
H   58.097668   52.121700   13.303887
H   84.477203   26.385012   76.616211
H   75.787987   19.895824   73.031105
H   54.997696   34.919189   37.511421
H   62.193546   12.405004    5.932436
H   89.406181   29.406439   92.620651
H   39.829437    7.631818    3.058970
H   29.622229   76.296906   55.613579
H   43.088478   48.537178   89.385178
H   71.546074   47.692928   38.723175
H   50.556011    3.619556   91.835365
H   58.401081   40.892365   45.940178
H   56.353382   17.354883    0.617786
H   27.409193   55.710629   59.349922
H   70.644188   63.230244   34.409687
H   43.381809   63.619621   75.917404
H    8.841589   65.720795   33.968967
H   53.147202   34.382385   78.930962
H   27.274853   72.390816   25.983461
H   70.873291   45.583111   18.514112
H   96.236343   10.289217   19.980408
H   31.538065   27.971565   58.948616
H   67.154877   75.357529   58.588943
H   58.579849   28.935923   47.655388
H   18.197346   91.813751    2.914396
H   94.314651   79.330391   48.011692
H   23.172276    8.080759   98.796417
H   18.980328   61.630562   87.157394
H   89.577332   53.402924   69.205177
H   17.023468   90.404907   94.296295
H   70.250282   36.185493   72.364082
H   16.353731   22.141264   70.091751
H   32.955925   39.583435   68.220139
H   63.262390   96.450706   26.391487
H   73.617004   55.478271   97.239532
H   54.268593   50.202492   36.553143
H   98.009583   80.701691   12.862768
H   67.850830   12.750896    7.028873
H   83.227043   14.335389   76.378593
H   65.058495   31.680128   63.169659
H   76.108940   44.342377   52.337711
H   60.709229   41.586143   28.790327
H   32.239529   11.183199   32.292873
H   63.843620   47.250500   41.486923
H   94.869881   92.731689   37.075111
H   52.642834   51.358868    7.533230
H    1.438846   58.164200    8.333467
H   52.821117   42.875793   33.152744
H   96.969368   94.770729   68.512543
H   48.421692   15.400555   40.885010
H    2.174158   87.440193   89.974586
H    9.679770   48.193741   25.300779
H   90.308350   34.441223   73.555733
H   99.967964   75.354607   10.740820
H   77.664627   21.476227    0.504361
H   11.354736   88.661423   78.527908
H   36.182606   56.001438   74.183250
H   22.205330   91.574936   84.007034
H   53.487675   42.675808   70.702217
H   19.695896   58.579796   65.123711
H   70.181229   11.462330   57.225098
H   93.215775   90.146523   14.461222
H   14.700458   34.407410   21.891129
H    7.054550   46.049129   66.294449
H   71.769943   23.889339   92.150787
