100
TIME:    2.790, STEP:  2790
H   28.645607   66.164116   96.591690
H   23.661385   56.015343   53.992329
H   27.712362   74.627945   90.587685
H   81.944901   17.702250   87.233826
H   70.181274   96.388321   90.056931
H   84.755867   98.185478   55.049534
H    6.747206   49.732605    8.634574
H    0.597797   29.972437   52.026112
H   85.044411   18.046402   24.466084
H   98.598595   56.443626   16.942369
H   40.736023   78.504318   71.001831
H   49.355469   63.538956   94.334251
H   65.789085   92.908356   47.825333
H   16.936516   96.476295   69.561226
H   14.437096   20.813192   16.659094
H   89.344055   67.705475    1.446683
H   99.751839   66.506165   27.373056
H   60.765900   59.022957    2.819344
H   88.721153   95.395950   10.351427
H   17.352310   46.565212    6.288775
H   98.714172   78.464325   81.516876
H   29.860367   47.787750   81.684021
H   48.493507   71.931328   52.525528
H   59.820282   70.143372   99.863167
H   29.796860   64.899597   57.146667
H   33.866093   44.475658   27.665083
H   21.493629   26.499556   55.330936
H   97.130272   86.667488   58.996395
H   71.836533    2.222913   25.287004
H    7.974847   21.787827    5.185944
H   25.858564   72.239563   88.643028
H   41.919411   75.425652   40.979774
H   66.882538   64.352577   49.142189
H   95.984795   18.035782   54.212448
H   11.419198   48.017578   94.620811
H   15.133962    3.653328   11.049188
H   47.396011    2.359093   28.306273
H   48.674362    7.889117   19.324512
H   27.305679   20.627237   73.940598
H    0.407006   50.993271   57.546528
H   44.574612   51.913685    8.077424
H   80.871849   37.075195   33.877121
H   35.272739   80.230743    2.998724
H    1.199347   59.532906   53.524826
H   14.644136   21.812679   94.858376
H   42.092754   16.131763   94.497963
H   63.531086   76.567169   52.241325
H   56.388416   24.108973   41.207298
H   46.582901    1.382565   33.179390
H   84.397606   73.210365   88.528595
H   43.331760    0.286599   82.834152
H   40.720875    4.847631   90.903099
H   66.754463   38.186096   40.830750
H   12.085033   61.689293   54.931183
H   18.647995    3.090983   24.079542
H   97.057144    9.599794   97.648621
H   73.124733    9.042638   21.339790
H   18.307220   13.406390   41.692459
H   10.318832   56.653240   97.293114
H   74.906845   42.237125   84.256355
H   35.696480   48.823116   96.866104
H   99.892052    1.973551   69.117462
H   63.478008   16.896074   42.153488
H   34.623436   56.971405   51.394260
H   43.062435   38.011311   55.389122
H   29.950966    3.573758   11.151566
H   63.721626   44.819477    1.762769
H   87.641273   77.100037   99.580734
H   95.954399   49.314720   85.248604
H   86.909973   88.471748   95.858185
H   33.438271    5.567758   28.681519
H   43.918671   58.930450   60.893631
H   25.078695   80.301201   90.210442
H   68.792961   72.823715   37.390556
H   96.689354   32.615185   12.898731
H   91.614067   86.385735    8.198521
H   20.268526   84.728409   40.392338
H   63.059597   68.290611   68.522598
H   95.304291   45.323620   48.809067
H   62.698494   57.005856   80.560257
H   65.479782   58.145489   46.740192
H   50.661499   62.448380   53.479591
H   94.322952   53.826477   95.633698
H   42.097721   50.905487    8.594086
H   16.479313   74.369080   77.293266
H   87.078796   11.534939   35.529385
H   53.492516    0.497185   56.581299
H    0.868448   81.920349   66.729073
H   13.582882   38.828972    5.374028
H   19.664753   94.485916   23.954067
H   38.200928   24.084175   92.381424
H   84.722824    5.330801   86.685448
H   64.295807   11.232023   34.757729
H   16.891430   82.467308   14.934422
H    8.352329   99.817566   80.198418
H   24.364182   85.557625   23.342041
H   41.144974   27.792751   76.734032
H   17.108480   39.992859   11.393936
H   75.804344   48.876888   11.345634
H   12.509720    7.039772   28.969027
