100
TIME:    0.160, STEP:   160
H    6.502574    7.348531   98.999527
H   96.819496   13.419693   88.093292
H   82.513458   85.415062   21.461205
H   81.503464   26.058645   31.392767
H   93.737946   85.582230   61.366966
H   25.535255    1.039511   94.590538
H   44.584454   72.142479    2.964727
H    7.310614    2.444742   93.502998
H   49.694893   70.910019   90.015511
H   70.468056   18.684258   13.954325
H   85.372223   72.680496   24.337791
H   49.734966   31.710487   81.540306
H   33.085075   52.027206    9.226571
H   47.159748    4.583950   69.417061
H   82.448952   55.729820   43.081738
H   95.090271   97.742073   19.758198
H   11.202471   92.578163   87.922539
H    4.563841   86.919739   93.999313
H   47.755753   85.065430   71.790955
H   88.318336    2.177401   27.103540
H   54.781921   40.289192   52.898849
H   77.689613   44.311119    5.631433
H   83.607796   93.320946   27.773071
H    4.175807   38.600712   95.191360
H   23.860437   73.484413   37.739822
H   45.922413   22.844917   74.174553
H   48.282169   35.825962    3.141306
H   19.040535   63.907436   72.064590
H   14.650287   63.608395   49.608673
H    7.129089   86.879684   96.108574
H   22.395693   36.390327   96.750969
H   75.859894   48.089745   84.452095
H   81.628357   56.775734   12.211019
H   84.862404   59.059631   65.010765
H   76.794777   46.825455   34.471230
H   86.466301   97.054436   20.093794
H   95.145317   98.675636   21.072521
H   57.375504   56.025784   33.732037
H   43.527790   77.092461   26.791351
H   48.122875   97.204140   50.623085
H   24.307606   61.668644   46.108265
H   17.241287   19.037622   10.317267
H   12.619758   64.459412   13.030439
H   69.142441   15.453191   96.375748
H   42.776482   25.579082   69.799133
H   75.907982   66.211967   83.945732
H   37.769520   34.371952   28.990423
H   56.247959   97.029587   78.477844
H   69.704582   19.198299   38.091660
H   29.245497   33.184696   72.473526
H   43.529888   54.197426   55.108227
H   12.908868   48.892494   63.559654
H   12.198257   22.936462   93.577248
H   72.980286    4.591628   38.876179
H   28.021873   72.531921    1.763845
H   93.766434   12.364063   87.180023
H    6.395899   84.930092   71.204750
H   14.145664   61.776573    9.433645
H    2.896721   45.529358   99.199783
H   48.461990   40.086266   59.054482
H   69.793594   71.128891    1.921634
H   93.232422   26.456100   88.115021
H   85.085823   96.242317   22.581512
H   54.026978   42.664841   22.796576
H   38.672493   48.065662   10.461316
H   91.516426   34.319080   55.646313
H   74.731407   53.892765   74.786972
H   69.313454   26.688107   73.851524
H   64.878502   38.289742   50.198406
H   33.627953   56.192322    1.394309
H   16.951895   84.517937   60.228458
H   60.773335   46.215462   68.337105
H   96.559006   10.393177   57.646961
H   26.669235   39.254696   93.699333
H   69.884689   28.871359   13.526891
H   29.440596   17.826674   85.163528
H   81.482239   12.676392   93.863464
H   39.497421   40.258442   23.276089
H   69.223351   53.031811   19.472511
H   91.678757    0.239777    7.137052
H   14.013039   30.936541   89.551697
H   53.328831   45.272476   73.401550
H   27.919781    9.927936   45.139008
H   61.177513   25.853001   48.815956
H   44.539764   38.876511   32.241966
H   47.614170   14.927936   52.895153
H   77.840752   91.719612   31.172604
H   58.530853   92.484169   94.075203
H   59.003609   85.263908   26.891899
H   52.189064    2.703795   29.931505
H   30.570436   82.070648   36.840649
H   90.125008    7.540052   36.573296
H   95.550331   32.425629   31.293108
H   62.693352   22.937384   37.606709
H   53.825535   35.397961   19.763744
H    7.136968   89.413322   59.184731
H   49.902122   76.862511   27.987190
H    7.452770   17.599976   53.475250
H    1.090157   37.539989   31.649372
H   49.178051   74.593437   82.275620
