100
TIME:    5.531, STEP:  5531
H   43.283119   14.801023   94.082230
H   47.721962    4.579463   26.852360
H   74.832291   71.826370   58.421139
H   82.404968    4.772373   36.989899
H   45.630386   16.091463   15.737347
H   42.251637   95.215950   26.499514
H   63.088779   34.817402   22.984484
H   85.160599   67.102737    0.355103
H   17.665398   54.510315   51.930946
H   23.692362   95.800331   24.277365
H   85.774887   88.794495    6.975941
H   44.739105    0.931282   99.226967
H   91.122391   27.120350   75.433769
H   81.219017   88.027779   78.151985
H   47.776604   75.976364   84.902466
H   79.134018   27.967667   73.919647
H   79.336952   47.802670   76.897095
H   19.344450   25.698910    7.793142
H   31.415646   10.384234   54.755291
H   43.501251   88.356728   92.908852
H   36.059334    5.588166    7.123867
H   92.642700   51.426468   48.262527
H   11.896623   49.638954   74.101685
H    5.147972    2.995089   96.292603
H   31.762997   47.524414   77.387550
H   21.332903   63.150734   70.306686
H   85.134781   12.559217    9.709091
H   65.851082   14.608070   49.599594
H   31.437538   50.907413   95.719543
H   13.076725   53.947533   23.087021
H   33.734512   18.031277   71.783821
H   14.987797   99.698624   87.231697
H   59.954510   63.808006   96.073112
H   11.799109   66.839592   38.738197
H   43.286224   40.818985   61.526054
H   53.437824   18.640301    2.037273
H   10.294221    1.977352   44.286419
H   35.385769   57.736210   12.749527
H   11.605931   60.905693    8.317537
H   42.234959   94.389290   73.202782
H   57.246857   45.963905   72.653664
H   34.525719   60.093590   62.646008
H   58.882580   96.667709    0.984563
H   26.170872    5.480530   21.528131
H   76.881859   13.668038   29.413439
H    6.728574   68.412186    5.631472
H   84.945602   25.632931   78.558174
H   56.534801   52.337479   10.804816
H   26.707069   74.371826   23.839657
H   41.879475   14.916708   96.819626
H   43.122639   35.661499   11.732654
H   73.928886   50.504398   10.961273
H   23.601223   54.079346   81.637688
H   48.604736   16.958160   75.884422
H    0.408031   43.315548   47.392284
H    0.484565    6.715648    4.338516
H   46.892479   29.952278   82.031517
H   14.206080   54.553093   71.089340
H   26.495100   72.467354   86.865425
H   94.030457   52.920010    6.295784
H    8.600023   21.355270   83.155479
H    2.611669   76.460312   45.094849
H   49.560581   29.857958   54.193176
H   22.843029   71.892838   76.974319
H   51.858643   19.091969   10.646834
H   61.567894   67.310692   73.219215
H   43.806335   39.583332   34.099686
H   98.301598   33.861729   30.616385
H   32.566486   52.363945   13.337148
H   42.442650   26.334980   90.086426
H   46.398933   19.071487   95.798988
H   17.911175   67.961807   61.576942
H   46.360123   44.719536   19.932434
H    8.452030   99.362572   74.520439
H   28.843443   36.525761   20.685482
H   56.417130   62.059395   23.763697
H   69.134727   47.156178   88.866753
H   91.836761   89.061928   19.895571
H   26.744793   37.272434   79.393044
H   28.277649    7.718980   44.420593
H   19.104845   86.502396   10.564202
H   56.327652   80.340195   24.272825
H   67.724159   99.617249   56.688931
H   30.674219   85.458542   58.244747
H   83.015053    2.916697   11.583912
H   23.994427   12.216166   25.872787
H   36.557716    1.204036   87.282883
H   44.982689   62.478489   38.229866
H   70.467148   86.215309   82.954353
H   77.324402   81.715622   21.937822
H   50.373985   72.088547   50.266399
H   87.536888   11.463574   38.914169
H   40.001144   93.476723   46.725300
H   81.817421   48.732494   99.746056
H   60.963921   54.297108   43.181889
H   50.759521   77.318695   81.765472
H   23.577486   85.093559   19.096497
H   27.167234   63.330841   67.524254
H   45.228912   60.692265   81.757957
H   82.762527   36.700054   64.922882
