100
TIME:    9.292, STEP:  9292
H   88.942291   69.900948   90.638931
H   43.853348    8.382963   63.996815
H   39.491825   42.407219   14.266319
H   83.036240   49.820549   30.835989
H   11.934908   17.551758   13.761900
H   83.926270   91.141380   98.963440
H   65.974663   88.778038   17.099682
H   89.553421   92.478378   55.033928
H   25.212776   92.903946   15.188540
H   20.961203   49.804356   71.540108
H   35.935822   40.124725   44.695244
H    1.189489   89.450691   31.513798
H   51.229691   99.556816    1.694543
H   94.997696   76.435341   64.366646
H   93.466621   40.025581    4.049505
H   27.912544   99.016525   61.723694
H   76.899605   96.565147   19.275770
H   99.770584   42.690117   77.419022
H   89.993286   68.165894   52.899067
H   42.172001    8.487928   48.975151
H   12.876158   31.169420    5.043246
H   53.213436   56.419250   27.978622
H   61.680611   19.057062   66.495407
H   55.697773   47.987518   16.969160
H   97.249985   49.259064    5.161018
H    3.793154   52.175339   16.463053
H   60.820389   56.221058   84.334152
H   48.509277   90.158859   73.917992
H   13.216763   92.135185   17.934143
H   57.289360   60.862473   22.075771
H   81.754860   55.286709   74.225632
H   52.459827   95.785248   39.057076
H   24.872879   88.635803   34.893700
H   70.711136   22.166229   80.294594
H   49.703590   56.135201   90.385254
H   80.375320   13.221734   90.214241
H   71.022003   64.241951   40.638508
H   79.935722   88.905128   78.151375
H   52.855152   78.960777   43.848312
H   87.990829   42.297554   69.110855
H    0.209660   75.012146   61.259975
H   17.134888   78.041748   54.332859
H   91.254120   19.228695   72.642815
H   86.022377   68.615273   89.256538
H   50.643204   65.289665   51.254803
H   58.183884   40.141491   20.911108
H   14.338170   30.169573   14.664124
H   56.754757   91.074585   43.513462
H   36.644012   62.885700   73.813721
H   20.822737   72.167717   33.835934
H   43.020679   72.573509   51.141190
H   56.720409    1.509977   64.074104
H    1.607211   75.886902   63.209366
H   61.506134   55.600060   41.845894
H    0.951547   72.911957   79.372467
H    5.168934    2.759441   76.305176
H   85.324356   21.430000   39.734047
H   34.153992   99.371986   74.214256
H   23.119125   31.389414   98.138176
H   45.842014   42.002636   99.324013
H   45.849064   46.449535   89.921227
H   69.126671   41.453445   74.922722
H    4.894060   73.213524   96.290131
H   81.105347   92.380463   74.863388
H    1.137489   18.706394   60.892216
H   30.526588   80.340813   95.599922
H   42.054276   69.608582   15.679813
H   38.503860   48.957161   10.413940
H   20.013376   82.122482   77.455322
H   18.740677   15.358368   82.135437
H   26.962494   63.172031   50.691780
H    8.094008   43.069725   37.145710
H    1.136095   58.688557   23.502041
H   25.656841   61.327999   51.054237
H   10.076238   41.997211    5.827348
H   45.327644    3.102371   70.694595
H   10.694474   21.553875   55.540024
H   68.527092   43.146538   27.612228
H    7.099706   26.225185   21.355799
H   43.836571    2.839507   20.407005
H   92.721870   25.412363   35.353600
H   38.560196    4.735229    9.635538
H    5.612770   62.513340   14.865727
H   89.423820    7.295555   14.737236
H   99.888260   67.648544   46.998413
H   37.436428   50.365662   87.047791
H   87.746513   27.748070   66.621590
H    5.469548   61.520912   99.235016
H   48.520756   76.808739   52.194221
H   44.801487   26.978012   56.381447
H    4.289729   75.170364   29.692162
H   65.812805   94.326996   10.578187
H   81.088684    6.319906   37.569206
H   45.143532   76.895004   53.583050
H   95.936325   17.408489   29.605082
H   61.402695   28.800543   87.504883
H   25.046928    0.927757    2.796345
H   20.341600   46.228024   92.340538
H   66.063591   76.927299   66.736107
H   16.374016   40.186451    2.611499
