100
TIME:    5.116, STEP:  5116
H   71.348305   52.858040   94.462173
H   59.183601   82.092560    0.685224
H   67.695679   41.969116   63.293919
H   82.335312   21.871429   59.739037
H   49.347504   82.827469   26.988453
H   48.688519   95.665550   85.400932
H   84.840431    6.793619   90.530869
H   17.778786   31.200939   38.459980
H   27.866890   94.410751   78.053551
H   35.032524   89.841545    8.025267
H   24.377167   72.095963   46.950191
H   60.579597   80.129387   28.766142
H   17.604446   52.215950   16.670410
H    1.767573   89.306923   46.570572
H   42.729683   13.045852    4.850031
H   95.819885   64.264969    8.368168
H   12.708914   20.354893   39.118011
H   10.470088   45.890255   22.178766
H   24.951851   92.974762   32.892689
H   54.681099   97.171425   64.653694
H   60.686028   46.903870   18.387619
H   52.856247   50.875549   83.603638
H   17.438057   53.014122   85.974930
H   43.708004   98.030487   27.114090
H   46.606110   80.435471   74.322670
H   23.224707   75.416809    9.332808
H   20.920099   29.810410    1.474287
H    0.869178   95.237305   35.880455
H   22.413872   13.255709   15.336224
H   97.164108   64.218681   90.096260
H   17.401508   80.816879    4.617302
H   88.784676   11.164002   25.650276
H   30.721066   94.171852   58.686638
H   94.264160    4.871903   56.221947
H   53.601700   72.189682   36.256622
H   17.362799   86.135490    3.342449
H   70.489258   17.176662   11.586026
H   52.537067   65.331367   83.463326
H   29.124310   69.948357   48.533661
H   81.323082   33.240280   40.550663
H   85.609665   31.725508   62.876446
H   71.823540   41.466843   43.151722
H   55.307941   94.179077   71.007057
H   52.668789   98.514648   80.951218
H   12.880968   30.040565   93.900047
H   12.083736   60.496693    3.944921
H   81.703415    3.062763   74.575096
H   56.512638   48.063110   85.127037
H   14.577362    8.743343   40.394928
H   33.175594    8.600142   25.844597
H   43.154301   75.726578    7.357758
H   53.760201   89.012817   38.206413
H   14.992421   51.673035    5.739195
H   58.214149   23.730659   57.571129
H   33.451904    6.946315   43.861973
H   99.967484    7.152187   18.466095
H   20.584534   41.926842   42.561684
H   45.107315   93.744301   81.778427
H   93.765312   54.932770   18.724529
H   21.416058   21.020557   18.099373
H   82.421631   40.654125   15.512889
H   17.339369   80.323074   63.873573
H   21.385176   58.176559   82.650970
H   94.345863   69.632172   88.239655
H   35.384911   52.238285   71.999779
H   87.062126   87.941643   48.681175
H   77.102081   25.236538   14.062561
H   26.968803   10.126445   10.776984
H   11.881870   82.183205   39.366386
H   34.036392    5.461462   90.960297
H   59.576653   47.307648    0.776446
H   52.128937   81.734772   31.190975
H   73.418457   65.246193   30.574028
H   17.586514   25.627701   99.178795
H    8.834933   35.933681   89.225189
H   46.605080   35.460159   51.686871
H   31.454252   83.125679   81.527504
H   72.339310   16.197285   96.976326
H    6.844893   38.491421   74.764061
H   48.626923   30.324738   80.173309
H   10.984034   82.209030   85.760567
H   25.185043   77.638931   58.980858
H   41.473656   92.676941   17.165274
H    2.123022   49.946457   96.149994
H    3.221898   28.875969   51.813545
H   33.546848   96.972816   97.053635
H    8.840811   31.378052   67.494141
H   38.305069   95.695709   42.539314
H   61.855087    9.321875   86.348518
H   14.015203   98.787766    7.103049
H   33.390495   49.680218   41.502361
H   56.831089   80.251572   31.008169
H   13.398822   81.027229   14.632710
H   41.708954   23.555487   71.763191
H   68.138527   91.469109   33.645298
H   16.482254   93.706940    3.200752
H   56.518211   61.277416   42.963303
H   25.644293   59.797363   74.166939
H   64.998657   58.903362   16.517975
H   56.984196   47.347980    4.899600
