100
TIME:    7.183, STEP:  7183
H   31.564798   63.305305   92.569778
H    2.100312   94.099388   31.015980
H    3.239903   90.678154   39.023952
H   82.682251   36.711639   46.438595
H   30.833075   48.506466   70.944748
H   16.628193   93.426216   90.102707
H   76.508240   46.368870   52.173107
H   55.316658   10.023293   48.675171
H   77.056023   95.677124   47.943142
H   78.566353   19.522234   88.961250
H   32.109863   55.266117   47.846260
H   81.686188   83.737411   81.635521
H   85.713585   27.207485   11.280090
H   99.422493   82.935860    3.868642
H   67.850716   28.411858    5.473144
H   12.710373   83.477478   36.789551
H   46.493019   57.069263   27.285181
H   54.672787   45.314163   50.525467
H   57.140064   79.689453   41.789577
H   98.997086   53.271717    5.384628
H   38.027313   41.127304   62.281193
H   51.021545   53.619522    7.579442
H   89.838799   36.203346   26.836897
H   51.654175   22.757784   73.602356
H   72.679146   16.511787   89.587990
H   13.738842   14.346745   14.930236
H   42.680935   43.888657   42.490864
H   26.461349   91.717873    4.203134
H   67.358253    0.790273   17.627810
H   76.421478   13.060709   54.416313
H   98.750572   66.168198   41.082909
H   19.296108   54.050556   34.297752
H   76.318489   42.939522   44.898323
H   81.600365   15.443509   69.142990
H    2.190555   15.816109   62.072601
H   97.043922   48.032394   96.843483
H   68.741379   41.479126   74.457672
H   67.103905   27.499790   29.325790
H   41.876217   24.910597   48.226044
H   86.635002   39.734943    3.177567
H   44.344055    2.651067   11.573202
H   94.869728   69.771286   46.664387
H   73.104156    6.576597   20.309917
H   20.685322   33.208946   83.051018
H   33.584015   48.486416   70.778755
H   85.405388   99.921585   12.342974
H   97.851852   15.473947   94.413704
H   56.626034   69.352554   13.020931
H   74.994942   37.553684   57.943039
H   76.548096   40.063290   81.297157
H   43.008373   76.171112   29.145519
H   54.222561   97.209290    2.517436
H   57.870846   63.658203   85.691536
H   10.352325   90.005249   48.781815
H   68.873734   88.088661   61.445477
H    2.542177    4.977904   48.100525
H   51.621929   82.283867   39.150597
H   91.194992   98.541313   28.538534
H   56.784027   42.273884   60.046074
H   85.014870   79.897659   59.308983
H   12.809494   44.528358   54.351883
H   43.979225   61.083725   70.347488
H   61.715679   17.127869   40.910583
H   36.283291   80.891922   32.121181
H   17.427601   87.150116   64.490517
H   60.084381   85.185204   70.898865
H   11.262762   96.698181   13.857253
H   84.186714   28.341303    9.591537
H   14.900883   33.661758    9.726590
H   75.910118    9.425174   86.607788
H   93.939003    6.670453   75.985878
H   81.761559   13.099694   82.557854
H   38.646606   63.010448   77.577942
H   72.080421   94.807678   76.364288
H    8.484147   38.891766   45.921528
H   95.466026   67.937035   12.605075
H   19.152496    4.092927   18.132841
H   69.450729   81.042015   11.128932
H    5.965314   32.419987   97.819740
H   47.263626   17.727402    2.099397
H   51.433922    3.593789    9.300765
H   80.302864   91.053528   86.074394
H   72.216927   27.243200   14.015322
H   44.328159   26.824230    7.361699
H    2.577147   99.582420   51.441048
H   85.973862   72.899368   40.592621
H   46.891117   81.089851   66.056511
H   71.551414   30.282694   21.101357
H    4.750028   94.234749   69.443123
H   31.264769   13.746830   80.991135
H   17.980701   61.291451   85.153610
H    9.768160   35.709198   70.388313
H   45.897572   43.045597   74.476997
H   41.475571   48.957115   11.137538
H   32.403801    6.319522   81.144409
H   87.207916   12.083369   96.437431
H   92.449883   79.897446   24.088295
H   24.412470   41.873936   34.683350
H   66.531517   67.820137   43.386189
H   85.374947   94.307449    5.778566
