100
TIME:    4.405, STEP:  4405
H   19.430061   18.060272   95.113113
H   78.820290   43.564888   55.856133
H   55.472641   90.817757   71.637260
H   82.215973   51.164665   98.709236
H   55.715866   25.837679   46.266418
H   59.716526   96.435829   14.987791
H   22.104691   58.785542   34.929745
H   73.661980   69.689575    3.740768
H   45.344627   62.770599   22.807539
H   54.463081   79.632637   80.185333
H   90.512665   43.487156   15.437939
H   87.713631   44.490425   79.376549
H   62.974960   95.210533   87.319092
H   36.970772   91.498421   92.461975
H   34.083031   76.555145   39.028027
H   24.409176   26.451775   67.387634
H   69.883217   73.326385   74.392876
H   95.267570   80.484871   46.826611
H   13.877735   63.150711   95.435745
H   73.837791   12.271009   16.245462
H    2.877771   17.685352   37.684479
H   84.691986   49.931686   44.151825
H   26.930931   58.796638    6.317227
H    9.769310   89.512726   79.919708
H   72.036163   36.821266   69.071754
H   26.465845   96.431320   76.191673
H   82.231117   59.368305   87.370094
H   60.859783   62.050217   12.376309
H    6.953254   48.747860   48.945076
H   69.900574   81.815758   33.572975
H   89.419518   17.060669   60.869362
H   43.891521   30.806450   91.471153
H   80.639992   46.191231   94.634140
H   64.223282   70.030792   86.176033
H   71.274719   25.936028   92.962799
H   55.556644   30.447575    5.579216
H    2.296231   43.215805   55.562061
H   81.924889   78.339317   33.290028
H   59.138065   85.440727   17.435030
H   48.291321   99.801399   84.610840
H   34.200653    7.331514   46.125591
H   35.724838    9.556054    9.752228
H   49.183681   89.915421   19.651930
H   98.070496   86.592896   11.432664
H   74.553871   58.090652   33.058857
H   21.257145   46.935444    1.054624
H   76.148727   64.396751   67.751076
H   56.474667   40.740036   41.134346
H   93.794235   67.626617   68.758728
H   18.263645   97.779381   75.572243
H   43.208546   44.369438   99.862427
H   19.207144   54.988865   84.881805
H    0.244293   47.550415   47.034184
H   74.681023   35.333664   26.196327
H   90.061981   44.632061   37.813656
H   99.077866    7.900090   42.670212
H   75.508942   62.442299   74.939568
H   98.050430   60.889809    0.091550
H   37.689384   24.891251   73.309685
H   68.333054   66.372147   38.321907
H   37.571869   73.718040   70.946541
H   42.572563   86.940964   96.040878
H   73.116753    6.693479   31.406395
H   45.523315   65.759079    7.542141
H    7.163605    9.023594    5.787261
H   30.738869   23.287086    6.641571
H   34.147568    0.656070   79.735336
H   76.082222   69.463821   76.787071
H   76.447556   33.271118   83.958771
H   19.632017   69.702637   92.457458
H   82.153419   95.683334    9.306004
H   10.755150    5.331510   79.135826
H   19.777300    0.418583   48.805771
H   33.238567   70.623512   41.423454
H   74.552986   34.919300   35.327358
H   29.794558   89.891930   99.529556
H   66.901321   44.750546   68.953514
H   38.935238   62.689747   57.712929
H   72.747398   40.579853   66.833443
H   83.495605   69.049416   41.426476
H   97.072037   74.853409   43.265041
H   71.838341   72.995560   18.434195
H   96.499672   80.786438   49.454449
H   53.206200   89.104195   61.087265
H   37.842896   73.350304   20.736938
H   49.912563   70.859276   47.679840
H   61.354713   83.073532   33.591019
H   26.860594   52.619225   49.932907
H   47.100449   48.908546   92.163582
H   76.877884   28.041870   81.684799
H    4.293393   11.289570   26.487345
H    4.222177   26.779243   17.462004
H   67.822563   59.690300   59.649944
H   72.988358   80.429138   23.825544
H   80.430443   55.157349   17.309143
H   57.756531   21.782673   39.925087
H   12.954394   20.474331   83.853180
H   23.035109   53.743622   85.547539
H   98.869232   55.838520   76.072456
H   12.823246   65.591042   73.393158
