100
TIME:    7.381, STEP:  7381
H   18.175417   45.147652   92.388504
H   96.632126    4.828405   43.501194
H    6.643519    4.923064   36.699108
H   82.715485   28.553970   35.584789
H   29.058851   64.377037   65.576004
H   13.557403   93.211708    9.710949
H   66.130280   59.739368   67.656967
H   39.754250   27.152348   30.494858
H   72.188805   76.640289   35.479015
H   73.158333   22.365221   96.713753
H   13.692383   63.233128   28.774553
H   74.130066   93.662186   67.541435
H   73.087822   15.223711   91.603249
H   89.618568   82.325569   18.937077
H   70.255623   10.725517   95.950958
H    4.748727   66.159729   20.353468
H   30.571083   70.165543   45.309902
H   58.907055   35.679428   43.662720
H   60.223240   87.994843   52.220409
H   93.661575   49.067661   18.865366
H   26.277710   21.415222   56.907917
H   70.003998   53.882370   90.717972
H   87.195213   34.593025   21.171316
H   33.256332   25.126436   58.897453
H   65.597359    0.808891   91.050270
H   12.805279    8.510464   96.297356
H   25.606680   35.657288   46.419987
H    9.754788    0.959841   10.748273
H   71.663521   18.754118    8.268763
H   84.013855    8.159880   70.156975
H    6.543264   83.924026   25.417778
H   31.798000   48.580601   15.967888
H   90.264534   28.452860   62.735725
H   89.966179   97.298195   60.801346
H   97.262810    0.824786   74.118530
H   14.255535   63.540421   96.221107
H   87.732895   34.228149   90.059357
H   58.920303   23.875813   43.297516
H   33.517956   20.597021   29.038265
H   67.984886   21.198565   18.755838
H   30.811987    9.444455   16.237638
H   78.183418   70.547745   56.771946
H   74.808136    7.764322   34.610958
H    8.042704   36.532310    2.411000
H   16.409088   40.674999   87.721870
H   82.849419    3.697511   13.147379
H   99.398727   26.242401   96.314064
H   56.638119   71.391891   25.271969
H   80.783638   21.155903   50.044006
H   80.705322   43.076977   67.453835
H   42.994778   57.055725   31.232441
H   63.845211   78.837128   89.519958
H   61.978222   64.806274   74.192696
H    5.767593   86.775543   57.519241
H   53.108902    5.439998   63.129818
H    2.788786    4.769628   41.360138
H   64.173691   76.570702   57.981987
H   76.451340   79.842857   23.437925
H   72.398491   50.641209   44.846214
H   71.948006   95.115646   53.677391
H   25.299959   35.321129   38.914856
H   36.951820   59.240768   61.389069
H   75.157433    3.616473   27.333130
H   49.880383   81.970505   26.744884
H   25.286602   71.336945   82.929146
H   47.920868   75.342003   82.606171
H   95.376617    3.543815   23.417212
H   70.509560   39.665154   19.057083
H   24.769722   19.434738   97.308380
H   79.929039   19.373674   86.188614
H   87.651802   93.198563   73.611183
H   65.459023    6.521258   97.071114
H   25.736479   53.217098   72.502258
H   67.720772   82.275574   64.599579
H   18.021448   39.183315   60.934071
H    0.145965   80.626244   99.282387
H   37.135456   86.956123   21.644278
H   78.753128   68.096001   22.064142
H   15.459899   31.838398    0.028279
H   37.553360    6.941118   85.041512
H   55.310173    5.642190   21.135178
H   95.161324   92.337555   69.508934
H   84.739967   30.554480   32.872353
H   57.949421   43.767574   89.277092
H   92.936371   87.195335   32.247108
H   81.417831   80.171494   54.342285
H   60.115086   66.693642   75.497887
H   74.735802   14.438555   19.048424
H    8.859521   83.210243   67.823738
H   13.758899    5.600056   88.069901
H   26.083668   71.983238   89.335007
H   24.418154   50.600891   74.161842
H   58.589802   48.986866   89.788643
H   60.610596   60.969566   24.488260
H   28.980068   88.584366   85.694397
H    3.561929    4.264868   86.210533
H   76.733391   91.260330   12.700595
H   24.030283   51.670307   30.708662
H   57.099205   68.675148   26.801090
H   97.674416   89.225723   86.705093
