100
TIME:    1.826, STEP:  1826
H   93.837799   54.567795   97.474258
H   50.476753    3.747147   93.183830
H   11.142141    5.274195    1.900163
H   81.783096   57.419151   40.074055
H   78.815735   19.119465   16.194508
H   99.700691   99.229851   59.581409
H   57.268414   84.637917   33.248436
H   76.366295   46.573620   40.537041
H    8.741432   10.730989   85.146996
H   24.939775   42.602013   79.194725
H   30.404953   39.715443   63.858929
H   86.146790   15.218370   62.952309
H   27.110882   51.231895   43.639221
H   64.668755   99.447609   96.198692
H    2.710332    6.921746   63.000069
H   28.105560   52.021469   81.467545
H   77.259796    2.753295   39.607452
H   40.165283    5.902202   36.242477
H   73.702782   54.957962   59.561649
H   43.321884   67.034531   40.655190
H   55.919205   74.433777    7.683929
H   37.436710   46.510048   63.775528
H   61.364296   79.771477   80.105789
H   49.386345   58.581730   71.460419
H   64.275627   41.355461   50.034637
H   38.286289   73.198257   18.021593
H    4.620377   66.574539   36.201267
H   78.468948   41.671215   27.129736
H   50.875534   14.761146   70.856407
H   71.010384   45.646591   28.549965
H   87.931404   85.791656   64.918396
H   81.052002    2.064009   30.222084
H   98.977982   34.882927   62.297455
H   55.254265    6.380762   94.825302
H   35.383736   20.888710   35.918823
H   31.318707   27.925455   14.362496
H   54.935570   37.664894   52.346928
H   88.519493   25.533123   51.296337
H   68.631882   41.528282   67.114441
H   91.204689   41.239330   81.700455
H   10.455002   18.837973   85.364304
H   67.510712   93.808846   88.588730
H   26.969244   74.449921   33.367516
H   62.756752   43.374550   59.269825
H   98.263908   59.844021   12.365744
H   54.529613   97.744942   90.585243
H   55.360950   24.242884   43.226265
H   56.336933   14.183756   81.560478
H   18.406904   81.219872   71.635849
H   64.186790   58.542286   55.950794
H   43.405308   93.354668   72.669907
H   93.873711   94.299713   54.189457
H   46.757950   32.596497   96.818047
H   34.406658   77.414803   12.393084
H   95.391663   18.581530   15.901052
H   95.850967   10.612909   30.465454
H   12.013012   36.858711   29.655340
H   90.089447    4.444152   66.522049
H   34.289413   15.921262   71.301239
H   38.521229   68.141327   11.674081
H   74.886063   93.655098   72.025627
H   34.102844   10.948168   12.732827
H   98.088638   82.633553    8.287482
H   68.428650   51.727478   77.565956
H    4.798277   15.004157   65.613983
H   89.171303   51.497139   54.152721
H   41.065536   11.493152   55.221874
H   54.231499   21.968266   53.495960
H   47.910797   18.581604   45.709633
H   67.375793   39.985687   97.888092
H   64.048683   71.159676   40.247440
H   23.405352   90.923553   90.312828
H   87.932678   27.984997   14.926731
H   90.004021   33.826408   94.683952
H   50.209602   31.241880   39.821514
H   68.829094   24.601698   73.062096
H   32.743622   68.282455   23.342192
H   17.769131   31.322618   15.282308
H   49.078812   48.153172   38.051079
H    9.974970    9.505636   63.609657
H   46.615459   48.172466   89.124748
H   78.330276   56.152725   34.088943
H   33.333782   37.734314    3.817416
H   75.783089   68.414772   96.644989
H   63.418457   34.666985   70.742249
H    9.263424   76.127998   68.586220
H   89.109123   70.587845   10.613979
H   85.350159   59.100586   76.760933
H   93.576363   92.503838   13.260450
H    4.895027   34.148987   89.493019
H   98.749947   72.029160   72.023514
H   13.392727   32.838009   68.313316
H    2.444225   82.344711   60.179520
H   23.717381   23.992628   49.935806
H   25.021839   86.167542   58.045952
H   44.741714   23.624216   73.133606
H   17.663181   72.470924   32.174469
H   13.569591   31.784973   26.819946
H   21.726219   44.721462   92.095840
H   52.642136   31.800121   21.815948
