100
TIME:    3.026, STEP:  3026
H   12.686453   44.521660   96.375626
H   17.096626   68.811081   68.879166
H   31.768972   91.607010   87.818459
H   81.984512    7.978449   74.298767
H   68.067444   15.304746   83.657822
H   81.097176   97.929802   78.421196
H   94.378136   65.668968   27.090080
H   82.048660   50.388729   30.356647
H   79.243080   95.355728    9.610558
H   92.149071   59.832237   26.184526
H   18.783875   88.000351   48.269497
H   40.347382   75.368484   77.535240
H   50.777794   78.630096   24.369442
H    5.251445   95.748878   87.519783
H   17.308052   99.733139    5.314439
H   79.855225   47.064117   81.856789
H   80.774178   82.116821   48.857067
H   65.808556   47.546333   94.637390
H   92.397850    5.296153   22.784136
H   10.994614   41.554317   22.356745
H   84.709595   54.970222   75.110565
H   52.485916   48.101044   61.586426
H   45.342567   70.011955   45.773514
H   37.893341   72.973816   82.336739
H   21.356842   46.182930   58.887787
H   32.783970   37.444561    5.544773
H    1.143045   16.689329   60.014133
H   77.216331   97.683174   66.797478
H   76.968063   23.634279   14.131777
H   17.023846   15.946879   23.946674
H   35.146938   93.403076   69.971458
H   56.820656   68.904106   19.132057
H   83.505096   47.085426   70.402931
H    5.956447   96.407997   44.269882
H    5.552504   30.177856    8.991585
H   35.653622   22.192610   10.238046
H   70.031044   93.716293   46.902218
H   38.920853    3.569853   35.977680
H   17.343307   15.485804   51.070175
H   78.177597   28.899008   76.114296
H   28.445707   60.010700   13.637137
H   59.661522   47.667755   44.964828
H   37.305546   81.645966   20.045078
H   86.128906   63.488686   76.599693
H   94.172676   12.501932   15.053866
H   39.048046   20.633106   95.455849
H   65.375290   89.401398   54.508202
H   56.401020   26.538797   55.809654
H   53.480759   81.836052   23.765169
H   89.345482   76.800636   72.021271
H   43.313755   77.502594   85.322495
H   52.190296   82.949249   75.411278
H   71.648323   39.554504   27.123581
H    6.620403   57.837944   65.345490
H   99.858170   23.774925   26.085466
H   97.352432    9.351770   89.614624
H   88.087196    2.232586   43.785286
H    0.734353   91.118988   35.613846
H   28.930984   66.624619   79.176109
H   59.332741   60.377537   77.543953
H   50.583321   37.848843   78.464615
H   91.515953   99.776505   58.439339
H   79.496056    0.793901   25.968582
H   50.830070   58.255188   44.986149
H   52.430630   19.162102   77.367180
H   15.453058   91.841499   25.104984
H   44.787178   52.977711   13.157367
H   71.339211   90.596863   10.862899
H    7.716506   32.357262   70.448189
H   91.692200    0.340919   95.361237
H   25.943707   89.510384   25.850174
H   24.459917   51.098114   78.171906
H    9.690405   68.626518   84.160637
H   63.600071   57.889320   23.364372
H    8.067950   32.951885   30.789768
H   97.192131    1.510354   92.318390
H   41.696224   64.274307   44.565983
H   74.147308   52.858707   81.554886
H    6.621585   44.630413   51.443253
H   51.124641   44.151821   60.228592
H   70.096359   60.587017   60.845600
H   68.369339   63.989639   33.745705
H    9.253864   57.766052   18.111301
H   58.333164   71.100311   87.038574
H    4.987758   59.607738   54.415642
H   81.648376   20.203625   51.917873
H   69.254417   83.338066   67.834656
H    4.666681   63.025513   64.273140
H   18.481022   25.689085    3.443177
H   98.798950   84.777420   32.390442
H   47.859009   36.827137   97.365311
H    2.184597   23.078424   91.183189
H   79.427124   18.311460   53.009666
H   39.702435   96.781578   30.846668
H    4.271618   78.679260   85.621635
H   43.856796   76.238045   11.152225
H   22.412647   41.336391   63.161583
H   17.974539   42.002258    7.617760
H   64.561790   49.894192   91.577110
H   27.167620    0.983205    6.234969
