100
TIME:    0.866, STEP:   866
H   58.758217   42.604652   98.353165
H   77.180855   51.699192   32.627193
H   94.643524   36.207073   13.171608
H   81.621964   96.969933   92.694572
H   87.414368   42.171242   42.223869
H   14.587494    0.271127   64.509392
H    7.584120   19.813589   58.175098
H   51.820404   63.520840   28.680695
H   32.340065    3.030952   45.575867
H   51.174141   28.818680   41.602470
H   19.701813    1.088085   56.331291
H   22.787045   67.098824   31.285677
H   88.176086    9.313219   39.055557
H   12.202467    2.407190   23.142841
H   91.034798   92.670074    9.143871
H   66.704193   35.990482   61.154770
H   54.441429   39.266953   52.202248
H   19.650146   52.587128   69.523727
H   58.749298   14.682086    8.987917
H   69.207558   87.375305   75.268303
H   12.886871   70.005035   33.739594
H   45.385609   45.242958   45.517635
H   74.181679   87.579094    7.572119
H   38.580765   47.068058   42.758423
H   98.611565   17.494190   42.952118
H   42.688145    1.806337    8.003343
H   87.402740    6.477667   17.150976
H   59.469521   96.861145   95.398270
H   30.001511   27.662050   16.236107
H   34.198864   69.406357   52.232906
H   50.167728   99.701515   40.883720
H   20.436773   28.585762   19.094093
H   31.357292    5.121977   75.813072
H   14.692683   94.359077   35.267326
H   59.246040   93.457069   77.461395
H   47.850555   52.513866   17.664549
H   62.858753   72.821144   76.702766
H   28.197632   43.103924   83.552528
H   11.787552   62.021446   59.125725
H   81.625587   31.110949    6.168753
H   76.059372   85.895943   62.746708
H   53.790031   50.725533   43.486195
H   18.700201   68.693085   64.023964
H   24.059145   27.284315   65.406013
H   81.536034   97.724075   30.213816
H   66.891228   79.483940   86.714317
H   45.224232   72.457657   35.023140
H   56.285664    4.299722   22.161070
H   90.345085   60.726059    9.928243
H   44.052578   43.930470   23.095909
H   43.478550   86.036583   62.547840
H   47.218437   83.380890   17.210091
H   26.843401   27.030090   52.574829
H   56.635662   93.073982   70.030838
H   71.818344   34.422794    7.754690
H   94.649796   11.621820   63.146118
H   51.151390   64.558907   38.351326
H   61.574402   95.104362   91.248611
H   58.575455   75.358978   45.000416
H    1.872589   94.350800   38.978477
H   14.328398   38.297905   46.874939
H   68.175110   19.884750   56.172630
H   32.972847   48.099098   74.147072
H    2.505418   46.505310    3.626547
H   66.697166   91.677971   76.210640
H   48.145515   99.221748   97.390541
H   18.087862   78.301483    8.872391
H   20.545418   67.064560    7.602408
H    0.062163   87.561096    5.917509
H   47.928719   91.700340   99.909576
H   94.532082   36.479359   51.761112
H    2.561970   22.784828   20.025663
H   50.527237   75.469673   39.543430
H   11.130031   94.577118   51.739647
H    3.926041   29.875914   67.046562
H   46.132900   63.076576   37.658886
H   45.582401   51.486931    6.357666
H   72.666580   94.094948   62.267689
H    3.060846   50.965672   27.344666
H   57.055283   61.791656   46.314453
H   27.828838   38.240826   31.746838
H    6.299355   49.883194   14.363361
H   72.590080   21.711275   12.382004
H    9.742092   86.266335   84.330544
H   10.162138   94.714508   63.803474
H   31.360592   40.864407    1.920808
H   24.992910   40.387672   64.837311
H   69.896057   35.959785   86.738991
H   73.654488   45.954308   21.115036
H   89.770645   73.650284   55.171734
H   59.462833   20.193697   51.750072
H   42.362186   60.637474   50.023018
H   40.847679   53.577835   85.910759
H   30.929956   65.763481   85.208305
H   41.620060   72.159241   35.985405
H   65.449631   61.533562   22.719124
H   93.863663   17.378157   87.384430
H   10.044810   23.611145   42.180069
H   67.457817   40.583279   72.510017
H   93.022964   56.460735   14.277636
