200
TIME:    0.205, STEP:   205
H    8.395662   62.591152   14.741098
H   27.652328   32.367207   88.476318
H   18.871286   67.606209   43.624260
H   16.662706   76.564674   45.414936
H   15.581747   82.842178   54.161716
H   90.757202   53.764950   66.585503
H    2.852153   55.328964   48.973911
H    2.104296   87.375000   26.314682
H   86.007080   88.030937   48.573242
H   12.093273   75.389153   97.452995
H   10.973722   93.846504   91.855637
H   30.633072   41.088642   11.074581
H   10.315143   85.846306   62.726158
H    6.058060   53.059269   40.579250
H   21.311695   71.675156   43.064709
H   30.320572   27.408455   55.078030
H   82.560913    6.079295   17.131353
H   37.393307   81.484489   44.143478
H   63.860912   30.969034   41.968601
H   89.944901   80.185326   38.827496
H   57.665039   75.011086   27.443981
H   90.808220   47.476555   71.923454
H   96.053299   62.795937   49.976013
H    7.867058   87.740356   91.695663
H    1.725181   11.296292   46.659245
H   18.690065   60.783104    8.112516
H   98.218040   58.094471   47.674622
H   93.707062   68.685608    0.639178
H    9.594460   57.593575   38.543308
H   94.631035   19.826740   99.836609
H   13.407187   49.987003   16.152021
H   32.562515   62.686020   92.741425
H   27.968979    8.232417   72.751640
H   97.584923   63.539734   37.678535
H   49.668049   91.247238   34.485317
H   34.204540   50.719967   79.075134
H   85.259903   75.184425   85.692177
H   34.646187   43.849953   16.741110
H   54.365608   47.653915   43.653645
H   90.418404   39.832417   65.063568
H   80.493896    6.858770    0.362554
H   11.597216   43.840816   40.868946
H   77.332047   88.585953   49.028652
H   37.359238   61.534184   17.496571
H   27.581184   75.227303   43.100868
H   41.552326   14.749366   42.307228
H   79.314590   27.926907   95.411568
H   90.967911   65.551140   48.905899
H   85.726799   30.080364   61.141098
H   63.369896   17.643557    7.193185
H   79.040833   70.939117   29.255814
H   22.476065   35.095562   62.789021
H   51.232952   95.423859    7.470320
H   22.927500   81.445099   81.184860
H   78.680374   77.163322   91.905289
H    5.754330   73.212296   77.502136
H    5.530369   16.613014   50.030033
H   67.026291   57.765759    5.935147
H   28.919697   73.801346    6.279971
H   43.912788   96.185707   67.641243
H   50.532871   16.059265   43.259090
H   89.307838   16.341970   48.797951
H   70.483070   24.481419   86.065720
H   23.278021   65.102402    2.886061
H   70.785744   75.557297   16.498394
H   40.112629   15.201367   32.234177
H   87.482521   23.900255   85.112007
H   97.537422   91.370354   86.578613
H   15.277551    5.380273   62.422806
H   45.438438   41.019958   50.984463
H   58.480518   75.986778   72.345139
H   33.124092   24.741814   45.009827
H   76.382950   25.058010    0.667709
H    6.725117    9.734002   59.553780
H   78.718857    0.305012   69.258415
H   52.429092   20.312279   63.106182
H   95.575516   28.647230   72.640648
H   27.851599    5.332607   49.164360
H   11.264465   28.134045   35.713642
H   68.803474   90.862144   95.921478
H   41.882618   30.693584    1.653143
H   25.097506   69.219635   88.939232
H   11.136265   13.282380   91.303772
H   25.815414   60.715111   92.710785
H   40.154575   98.953751   58.774075
H   23.681143   86.998917   28.511410
H   34.286556    2.711177    1.691086
H   75.622551   19.846977   10.122066
H   64.617409   71.963615   77.038956
H   23.619434   84.478363   55.250561
H   42.710011   34.590652   80.910164
H   84.299225   88.228378   97.604141
H   45.597038   17.256834   96.726646
H   61.597328   95.691086   68.143631
H   24.238031   57.399643   66.482071
H   70.721504   26.926769   30.707314
H   78.830818   15.489748   96.821846
H    7.856865   27.894838   48.262188
H   37.810982   70.128639   52.757214
H   66.595871   97.358612   27.241861
H    8.304697   79.458679   67.291695
H   89.270805   76.127052   66.057663
H   22.453878   38.449020   30.013712
H   20.194088   67.874863   88.772484
H   25.385136   27.932690   23.952797
H   86.037491   28.486473   45.529392
H   64.000320   29.662191   56.422119
H   64.957344   32.930553   20.094975
H   71.907089   40.531452   97.440163
H    3.242414   28.548384    5.365965
H   46.734051   96.370926    0.771226
H   84.588585   62.465038   90.112488
H   57.701931   79.868507   94.696671
H   63.342735   20.151903   75.856537
H   65.018242   80.511124   27.999857
H   15.466864    6.821234   77.355446
H   34.013958    7.949873   83.772079
H   40.948689   25.273743   34.678123
H   17.533138   56.399563   85.269470
H   69.858978   45.976315   48.037121
H   40.189278   21.526852   88.666718
H   19.799278   28.309155   47.158634
H   31.392584   23.298702   22.990875
H    4.592978   68.578400   19.397882
H   77.963661    9.818671   93.970703
H   46.440075   61.394730   26.207169
H   96.256615   49.026505   72.406464
H   76.194244   87.295464   34.706974
H   92.037003   53.750587   85.687881
H   66.048759   24.315237   65.905334
H   47.196106   86.435394    2.073807
H   83.043427   85.704239    8.501599
H   92.552040   80.891891   97.114799
H    2.636810   12.105573   49.276241
H    2.697055    2.002966   58.025200
H   63.290276    1.671770   84.197235
H   68.834770   86.475334   53.596298
H   90.919807   65.313606   83.751389
H   45.398392   43.844170   71.558365
H   43.428986   10.768574   96.430008
H   48.884907   64.097939   13.779377
H   58.849548   39.947384   45.430984
H   56.130627   56.116783    0.564766
H   59.316856   27.794680   77.544441
H   38.656773   70.927849   47.924061
H   44.657726   61.372646   31.522442
H   43.903465   96.931068   47.532501
H   43.608139   74.721527   69.025780
H   64.249603   66.253464   98.292397
H    8.346127   88.292564   91.306877
H   77.453896   60.715542   51.608421
H   32.314037    8.078133   49.249149
H   74.549812   33.147297    4.693317
H    8.984670    0.339364   76.817429
H   12.224655   52.954720   60.119953
H   62.463089   43.442120   52.984165
H   58.944897   59.834030   80.341354
H   45.548458   37.221458    8.904154
H   13.983676    1.866211    3.902860
H   64.072052   58.371887   76.897919
H   53.612148   85.831314   84.346481
H   45.247402   23.237680   35.847187
H   63.712780   36.095882   37.246605
H    9.989970   19.151466   72.696289
H   59.289307   20.900751    9.480645
H   11.310678   65.552757   62.493149
H   75.502518   98.133064   51.850662
H   23.601639   29.340137   46.565418
H   93.597382   28.284031   36.939579
H   24.875721   10.723839   90.797485
H   80.033630    5.217588   35.979012
H   47.372047   66.747009   57.350636
H   36.996693   78.958145   91.408829
H   71.654778   75.383286   73.433273
H   73.064606   95.299835    0.877054
H   99.826759   47.471794   23.253166
H   35.777298   51.827801   85.443848
H    1.419806    9.167480   64.432663
H   76.496651   22.193201   69.544197
H   87.965454   54.079659   85.891266
H   82.056816   83.935181   42.533070
H   18.521709   30.063320   68.338432
H   67.246399   90.202072    5.377307
H   50.718819   25.155518   75.902672
H   85.070351   89.852440   78.541031
H   98.527702   35.928436   83.779030
H   30.133373    5.124097   98.489700
H   92.102531   65.742012   24.301886
H    7.631952   61.017326   66.143402
H   48.977108   58.463703   65.260818
H   46.148270   32.182316   79.551399
H   47.939838   83.978043   25.070192
H    3.323041   16.691362   57.004459
H   35.715061   62.134121   32.607925
H   86.095703   55.818657   21.930773
H   75.242691   10.297563   30.045889
H    9.228631   84.605049    2.285431
H   29.926670   98.101791   47.953785
H   12.380043   11.513962   79.582390
H    8.372798   36.178482   98.235054
