100
TIME:    9.839, STEP:  9839
H   51.950348   19.738647   90.138138
H   28.746529   38.025494   98.484795
H   48.894222   81.761238    7.844687
H   83.128052   27.284407    0.852637
H    7.033392   61.396225   98.931053
H   75.446167   90.548775   53.135475
H   37.308125   25.714426   59.875790
H   46.560303   39.800137    4.808750
H   11.766472   40.312286   80.757973
H    6.018778   57.658466   92.957375
H   85.055145   62.134598   92.004616
H   80.314507   16.868431   92.578697
H   16.349426   66.446022   47.334778
H   67.913116   74.749336    5.991505
H    0.110498   91.164856   77.741722
H    5.917328   51.174057   16.317699
H   32.913246   32.744072   69.071335
H   11.468436   16.072945   58.456863
H   98.515121   91.110580   81.726440
H   27.436153   96.871063   86.217491
H   80.416016   76.714973   90.194962
H    5.654861   57.145401   81.396561
H   54.377373   14.610107   50.845612
H    4.872524   54.531219   76.345276
H   77.685654    5.877831    9.198666
H    1.212763   36.049789   64.989098
H   13.650631   33.480862   95.184677
H    2.355955   15.690969   91.996635
H   25.110851   41.762791   92.077805
H   78.264259   47.324356   65.560860
H    3.281105    4.338439   30.948730
H   86.997879   80.669632   88.418587
H   63.404762   48.614059   84.171776
H   93.822754   72.037071   57.249748
H   36.090355   14.719582   23.665533
H   27.924437   56.067875   88.494850
H   23.487453   44.210213   83.740128
H   57.326130   78.897606   16.752502
H   29.764400   67.041893   90.840569
H   36.469761   91.088303   12.146295
H   62.825439   93.783554   74.147057
H   71.036354   80.190842   82.250481
H   95.961578   22.510979   12.154457
H   51.098835   77.796486   42.737965
H    3.175494   43.677067   98.051926
H   51.126869   50.574688   23.133379
H   18.615376   59.920750   19.916460
H   56.788143   96.708511   77.358749
H   52.631844   17.584759   51.993523
H   32.303429   80.497581   95.589729
H   46.067173   19.995049   52.167816
H   83.304199   50.753395   28.166990
H   12.953262   79.058594   31.438232
H   48.840233   46.673416   65.984138
H   57.399178   20.847486   84.021500
H    5.850222    2.184051   57.684006
H   20.002350    5.646053   91.758141
H   93.424026   47.715141   60.125267
H   66.262047   54.505150   56.145863
H    9.747145   84.046432   83.766029
H   80.355927   21.012499   47.277027
H   49.712578   36.362045   50.172844
H   42.050816   35.920532   58.796066
H   18.666222   95.360184   60.013741
H   22.849003   75.018806   11.831580
H   96.924866   53.147728   27.943323
H   98.166573   88.521881   42.089611
H    0.718576   80.240059   36.563705
H   47.277405   42.818542   43.148434
H   29.849945   42.831089   80.975266
H    9.590836   25.950558   44.131386
H   63.048271   24.907616   77.239777
H   65.471237   31.633162    9.475651
H   13.616932   26.710331   18.553606
H   36.424583   42.802654   47.301136
H   58.260635   38.160374   33.889694
H   60.373970   74.210373   65.242363
H   94.226143    7.381529   57.822594
H   33.329102   24.618473   27.461306
H   17.011902   73.042152   73.282631
H    3.430189   31.071329   68.047066
H   79.605980    8.286210   63.871895
H   40.211868   71.661171   66.960526
H   27.056942   54.103958   64.775749
H   73.254395   33.431389   93.973679
H   24.845646   70.458656   25.033390
H   24.279482   87.976387   92.704582
H   14.265926   17.750883   93.567703
H   59.872074   46.352150   47.720467
H   96.438721    4.471519   75.935806
H   26.675741    4.708307   41.243797
H    6.285264   35.465881   20.998865
H   16.152210   22.733412   79.869560
H   94.922401    9.847733   95.207329
H   86.479675   68.412788   42.174599
H    6.582685    7.201333   59.251785
H   81.628960   32.317596   71.338074
H   19.285761   73.293167   81.356468
H   40.005638   79.289375   20.917927
H   50.348679   26.150845   49.918392
