100
TIME:    6.035, STEP:  6035
H    9.200230   68.581932   93.620804
H   33.802284   31.891684   58.632748
H   83.499405    8.086341   52.503353
H   82.489563   84.007782    9.363374
H   41.116104   56.489288    2.072448
H   34.434315   94.669930   76.413078
H   36.675999   68.850853   62.397938
H   45.547195   10.706704   54.080936
H    5.276115    6.052720   20.204794
H    9.923315    3.037259   44.012394
H   38.894028    9.073881   58.426994
H   25.501495   26.193775   63.351112
H   58.961014   96.641457   25.353691
H   56.263573   86.474312   16.505787
H   53.905876   30.956635   60.677082
H   58.869736   83.885780   32.083710
H   38.808388   81.138817   22.778204
H   30.122587    1.176056   90.321327
H   39.263874   31.529070   81.309006
H   29.923798   77.651649   27.223444
H    6.151253   55.414745   93.443611
H   40.961670   52.095535    5.342269
H    5.166738   45.539955   59.682129
H   58.320248    9.024385   58.862751
H   13.738431    7.553406   81.109718
H   19.035387   48.250526   22.913532
H   41.674187   91.608902   19.709890
H   23.326294   38.133095   66.260391
H   42.396400   96.634705   71.894592
H   32.401035   41.473656   63.153732
H   53.571976   63.224682   31.908943
H   46.810764   85.771255   40.573860
H   95.453972   26.932661   41.477417
H   33.095543   20.650871   17.506235
H   30.758324    2.719450   92.218231
H   97.250198   58.115929    0.452227
H   58.633278   83.520142   83.999794
H   14.555719   48.511539   48.314007
H   90.332489   49.923759   59.475883
H   94.764084   47.207134   12.855265
H   22.801937   63.255836   84.527687
H   91.616959   65.269394   88.056908
H   63.223827   99.690048   37.388542
H   93.989166   13.940145   70.805504
H   33.164478   93.782608   72.541489
H    0.224765   78.025223    7.679049
H   88.883102   53.042068   83.395454
H   56.561718   57.528519   41.989506
H   41.438087   32.631065    3.734368
H   52.449970   22.587912   61.566963
H   43.087200   87.002945   17.045589
H   98.422905    3.736170   77.875862
H   34.056362   57.001709   52.366383
H   36.934509    8.734096   98.125145
H   60.279350   87.483490   51.679699
H    1.112345    6.185489   87.181152
H   78.844154   15.409636   29.966270
H   76.677155    6.956022   58.107895
H   66.243301   93.762154   48.174873
H   60.769722   91.657806   91.960838
H   40.393452   97.917252   43.859356
H   84.723976   71.769150   22.288879
H   83.776924   95.465126   19.632385
H   57.453300   74.638321   63.292843
H   71.863785   78.839249   57.582401
H   30.606312   42.255272    3.019722
H    3.368746   57.006001   58.432205
H   63.487022   62.685459   54.710499
H   57.687275   16.149712   81.728241
H   52.651695   51.686050   89.025146
H   30.394955   84.779419   89.754311
H   76.353226   51.235123   98.475876
H   13.497833   19.791008    7.008667
H   97.357582   67.462669   44.573906
H   53.141605   37.244816   58.892105
H   68.332054   94.359428   89.850616
H   14.893477    3.471946   97.779961
H   15.515605   56.107513   47.731079
H   50.911968   35.792027   85.014748
H    3.563368   80.264412    1.000619
H   28.967821   91.716507   40.686420
H   94.156097   83.608627   82.113060
H   99.600990    8.045377    4.685781
H   65.346748   28.587395   12.213601
H   58.474892   71.393333   62.726822
H   12.393414   30.728954   60.871933
H   70.218727   64.559120   11.315603
H   53.088402   22.146502   33.004219
H   80.926132   58.152931   78.832283
H   32.763355   60.981663   39.953728
H   70.999718   99.304977   60.909954
H   24.827784   49.368774   48.515671
H   72.308640    8.598241   85.700394
H   30.527161   79.309639   33.729721
H   52.250664    9.150440   54.763676
H   92.387817   57.415863   55.733368
H   83.572624   14.016801   90.110733
H   26.628382   85.070129   57.727081
H   21.219391   62.864811   39.542961
H   14.068943   23.767372   16.369427
