100
TIME:    5.808, STEP:  5808
H   24.550875   89.399040   93.828629
H   40.071663   19.590193   44.318821
H   79.595764   91.755188   55.168705
H   82.451462   93.359894   21.806244
H   43.149323   38.294235    8.227057
H   37.955212   94.915855   53.932598
H   48.572231   53.522594   44.646244
H   63.388947   91.068039   74.923119
H   10.856209   27.877975   34.493759
H   16.124285   99.777641   35.124424
H   60.009018   99.940262   80.293175
H   34.166054   14.815418   79.509483
H   73.446396   10.368942   47.909599
H   67.503426   87.173988   99.230461
H   51.145271   51.233353   71.588409
H   67.996704    3.740043   50.926483
H   57.062325   66.123482    2.113500
H   25.268148   12.221069   98.190956
H   35.729122   22.005503   69.348694
H   36.039040   82.473183   11.768213
H   19.621758   78.012878   99.605614
H   19.198959   51.794189   24.673401
H    8.197745   47.386131   66.176651
H   79.411461    6.308810   75.721329
H   21.856705   25.556221   79.433266
H   20.070181   54.961533   44.259232
H   61.249542    1.044275   15.205366
H   42.479465   27.537498   58.756706
H   37.460564   76.039276   82.625275
H   23.697472   47.091850   45.107620
H   44.637245   42.869984   49.868462
H   32.477787   92.044098   61.588402
H   79.465324   43.541054   21.027464
H   23.503666   41.454124   27.068769
H   36.400955   19.879377   78.394440
H   77.517242   40.336525    1.166117
H   36.861908   91.833130   66.113014
H   23.937794   52.666302   32.295918
H   99.913208   54.869987   81.474129
H   16.145105   68.458580   94.995567
H   38.315536   55.467606   79.179665
H   10.747451   64.379211   76.467216
H   61.268543   98.328796   20.992325
H    8.484085   10.130026   48.611023
H   52.854137    2.739432   53.116802
H    3.154088   73.695541    6.756827
H   87.109665   40.697281   81.216759
H   56.549595   55.190491   27.944021
H   34.803284   51.430542   12.789893
H   47.689053   19.132826   77.444504
H   43.102787    8.918352   14.652764
H   87.390877   24.800114   92.776894
H   29.347401   55.685486   65.550926
H   42.190742   12.438138   88.107994
H   78.353172   67.591202   49.748661
H    0.829600    6.424271   94.908768
H   64.452293   21.959618    8.376595
H   93.580231   28.393995   63.954697
H   48.340721   84.171043   65.600975
H   75.750046   74.210922   98.417259
H   26.073971    8.473701   61.557362
H   92.780647   73.882034   32.560616
H   68.366722   10.955309   35.198456
H   41.864716   73.401764   69.455048
H   62.854362   96.968491   36.443165
H   44.551262   53.540154   89.597618
H   21.581932   49.158886   47.472916
H   79.167397   49.703342   43.858585
H   46.372952   32.460487   95.964233
H   48.053574   40.267815   89.503143
H   37.603203    0.224265   92.476814
H   95.071304   58.768768   81.856827
H   28.299282   31.018738   12.829491
H    2.355002   81.830284   58.061729
H   42.197903   36.920956   41.684219
H   62.966377   79.811699    5.125342
H   94.283501   23.146887   93.765480
H    4.850733   70.950584   35.194054
H   40.027149   36.458797   82.482750
H   14.695330   92.629982   20.556652
H   24.525568   89.368088   27.119242
H   77.117935   82.136536    1.101348
H   85.243767    4.249331   83.068253
H   49.730301    9.161999   32.945927
H   69.527702   85.591225   84.731995
H   17.618473   22.390854   45.108429
H   55.057915   81.063866    0.491278
H   49.437614   40.311642   35.357834
H   76.215439   70.792137   80.688850
H   52.834026   70.320480   31.839888
H   61.709953   87.046783   56.116131
H    8.032084   32.295975   44.191185
H   57.757446    1.786820   68.146133
H    8.588812   65.537788   18.423433
H   56.175087   29.484356   49.547276
H   73.638565   66.380035   67.458145
H    1.590984    0.990088    3.165696
H   27.066545   73.837204   62.283638
H   32.033203   61.886303   58.557190
H   99.969360   29.592525   38.237782
