100
TIME:    0.306, STEP:   306
H   96.629311   93.959633   98.865860
H   92.758247   21.335564   97.302948
H   85.021942   95.919060   19.746925
H   81.527969   20.043074   23.390013
H   92.430237   97.284775   57.408195
H   23.271271    0.880607    9.049368
H   36.933132   82.000420   14.382333
H   95.835297   15.075384   80.098427
H   46.105934   56.872757   80.825905
H   66.478096   20.780045   19.671930
H   71.791656   78.555161   10.274353
H   44.162167   39.028755   71.147697
H   23.798069   43.194046   94.715263
H   39.930592    4.133799   80.527016
H   84.224495   42.689491   36.063107
H   89.220062   84.972420    7.639061
H   99.464622    2.233344    1.215693
H    7.683712   79.819794   88.937790
H   50.029205   91.189606   79.483490
H   84.366249   99.116028   37.063957
H   46.118073   25.754021   48.936737
H   91.689003   44.503822   93.199959
H   81.658485   92.133537   23.595421
H   90.610794   40.351749   84.348740
H   18.639071   61.906422   38.818069
H   45.255894   18.491688   60.491341
H   35.691853   29.756573    6.038399
H    6.721993   70.722229   76.889969
H   17.824997   76.854790   42.707001
H   12.727229   83.266220    7.715023
H   28.138918   49.483009   85.197685
H   85.078461   44.056343   70.936134
H   91.911804   46.093513   25.363852
H   91.031136   45.679565   58.859856
H   73.165718   35.789017   43.361198
H   99.160210    8.523470   19.591429
H    9.148740   93.328957   32.576794
H   51.341553   53.353558   44.034420
H   36.963627   73.975792   12.797595
H   34.371883   83.536690   62.110649
H   14.330479   66.678413   49.549076
H    4.119644   25.590647   17.176382
H   13.877063   65.334930   23.576130
H   59.819168   17.899855   10.650986
H   30.112564   19.818592   82.292542
H   74.043327   68.956596   84.518272
H   39.311146   42.248280   30.237982
H   56.255756   98.533340   87.511505
H   73.973015    7.106996   32.267120
H   32.307583   35.406910   62.261559
H   43.521275   40.101555   56.643299
H   20.003801   35.344231   53.974617
H   15.226650   23.783020   85.098305
H   69.600739    2.209292   45.318928
H   16.398415   85.330536    3.002702
H   93.949112   12.210352   82.209839
H   15.651503   80.717354   85.090523
H    3.273743   47.988823    5.672869
H   14.411026   51.698090   87.991806
H   38.825439   51.308769   54.906212
H   79.003250   64.338608   90.537811
H   88.050598   25.097153   81.509644
H   94.988319   86.286354   12.565303
H   64.053108   43.459045   18.832235
H   44.468071   36.404331   24.058035
H   82.547371   27.060963   64.278969
H   63.017723   58.939808   81.835678
H   59.228279   35.038193   80.831169
H   72.154442   27.799110   41.041103
H   36.585335   63.536209    1.087293
H   12.315321   74.584251   58.477421
H   48.735508   41.370033   79.026009
H   87.039688    3.171818   53.903172
H   23.455658   30.015085   85.022118
H   76.924484   29.079100   24.595013
H   32.892544   27.183920   75.339005
H   94.737549    0.022092   96.447693
H   46.356766   30.711819   31.339344
H   76.220818   52.605190   21.100464
H   84.518661   92.288795   94.559082
H   16.869976   32.447369   98.277924
H   64.283638   46.225967   61.193039
H   37.157528   12.364852   59.044830
H   71.220673   38.346409   35.480446
H   37.430466   29.743317   18.089062
H   44.250607   20.293724   63.032825
H   87.591759   81.104225   38.134426
H   60.881165   80.794991   92.558083
H   62.033394   77.134727   25.697250
H   39.281288   96.695938   35.150982
H   36.545353   89.954773   39.923901
H    0.927544   18.520239   39.354683
H    4.917892   36.799881   42.588005
H   76.804237   31.793379   47.450169
H   51.301456   22.319759   23.118229
H   19.195969   83.647820   51.643684
H   38.313194   85.241203   19.590675
H    7.988691   18.843079   51.139420
H   94.135063   38.169338   19.419956
H   58.245129   70.844078   68.213852
