100
TIME:    1.367, STEP:  1367
H   24.877516   96.660538   97.894485
H   63.244652   78.862373   64.230186
H    3.252423   72.251610    7.288989
H   81.706055   76.329369   65.234978
H   82.926956   82.328606   28.639320
H    6.818542   99.727119   14.124001
H   81.325432   53.645000   97.353951
H   12.442795    6.865476   82.680763
H   20.024529   54.861938   14.038878
H   37.482567   36.011452   61.222473
H   73.100021   21.246464    8.073469
H    3.663949   92.211510   95.624962
H   56.306450   79.001900   89.260307
H   87.396034    0.862581   61.270550
H   97.127586   47.919651   85.062149
H   46.560532   92.168205   19.567856
H   14.162554   72.398880   97.817894
H   30.356483   28.223618   52.155075
H   66.551918   35.701057   35.381084
H   55.687065   76.783798    9.404306
H   83.156921   20.127953   20.141911
H   93.424614   45.904221    2.856884
H   67.492607   83.504494   93.237885
H   92.032387   53.076756    5.548310
H   80.692497   77.758949   46.648308
H   40.390926   86.876648   61.042908
H   44.201050   85.652847   27.092848
H   17.198410   20.246639   11.957789
H   40.895142   73.116974   92.554131
H   53.409878   57.006729   92.061546
H   69.875648   44.630417    1.239967
H   52.070347   14.745030   72.714043
H   66.648514   68.466072   20.947111
H   35.860786   48.445290   14.161970
H   46.792900   55.585457    7.970222
H   91.409790   91.868546   15.940646
H   10.912446   54.473976   16.179388
H    7.491695   33.934162   18.907337
H   89.265030   51.326576   11.105933
H   34.437538   84.209404   45.587154
H   41.821449    3.088350   74.550461
H    8.763023   73.210716   67.024078
H   23.015608   71.697433    0.213743
H   92.067589   35.680893   14.392390
H   38.078461   77.955002   73.087967
H   60.451313   88.990211   88.722237
H   50.514332   99.481506   39.304146
H   56.312420    9.457952   53.160137
H    4.991057   19.234703   89.943741
H   54.560154   51.556011   88.055260
H   43.440327   37.668861   67.830292
H   71.566658   36.891521   84.320877
H   37.236305   29.935059   23.476017
H   45.034901   84.901848   92.139175
H   31.933113   78.343903   12.006073
H   95.276657   11.095295   46.090897
H   82.913376   50.102867   86.000450
H   24.268097   47.791603   78.344437
H   98.090141   96.527023    6.537609
H   68.809647   32.860172   24.728844
H   45.932415   15.000783    7.814383
H   50.393646   15.221352   33.502411
H   66.956818   13.934132   39.776711
H   36.908607   49.230629   90.025688
H   86.580910   51.664677   22.866896
H   17.368141   74.315468   27.013060
H   77.891434   95.624268   33.061901
H   85.937630   95.716721   31.553106
H   25.032936   51.562424   74.497414
H   58.076996   16.898859   98.854614
H   78.623558    2.389688   45.752415
H   61.250698    6.157141   56.707909
H   17.860806   50.687763   26.696590
H    0.103510   62.874603   21.963722
H   28.080837   30.588778    5.025393
H   57.978291   95.184227    3.948482
H   91.069633    8.064245   15.222597
H   96.204468   61.337296   89.933929
H   27.076426   49.497898   32.931313
H   32.485367   34.504066    3.152977
H   37.633106   43.423901   61.690929
H   43.890629   53.155106   72.469681
H    4.292139   30.072615   60.099857
H   44.207836   29.137552   38.569649
H   85.767532   63.378998   15.237007
H   19.828632   59.268909   36.711998
H   58.453560    3.960899   88.726852
H   77.961166   95.849442   81.532982
H   84.051216   18.059923   17.015591
H   45.477524   53.034691   73.083153
H   79.965797   47.245136   62.330273
H   79.431114   98.317970   59.567368
H   72.993446   68.589279   24.669973
H   79.353798   96.150978   18.988850
H   32.958668   27.281998   47.498253
H    6.830217   41.749199   96.841415
H   54.096176   46.129696   58.571732
H   11.884305   27.876862   34.164650
H   43.591209   42.742893   30.543919
H   24.136734   43.590961   66.024239
