100
TIME:    0.193, STEP:   193
H    4.270979    4.322287   98.969315
H   95.901543   15.208897   90.174927
H   83.080444   87.789253   21.073730
H   81.509003   24.698961   29.583925
H   93.442368   88.227325   60.472176
H   25.023533    1.003594   97.858513
H   42.855045   74.370644    5.545401
H    4.716879    5.299602   90.473198
H   48.883690   67.737213   87.938408
H   69.566216   19.157963   15.246660
H   82.302643   74.008331   21.159069
H   48.475361   33.364616   79.191292
H   30.986008   50.030670    5.946680
H   45.525761    4.482203   71.928215
H   82.850273   52.782349   41.495335
H   93.763443   94.855782   17.018940
H    8.549381   94.760506   90.927162
H    5.269018   85.314957   92.855270
H   48.269615   86.449661   73.529678
H   87.425056    1.485411   29.354868
H   52.823654   37.003845   52.003304
H   80.853859   44.354675    2.821460
H   83.167198   93.052559   26.828808
H    1.109720   38.996494   92.740631
H   22.680265   70.867516   37.983536
H   45.771854   21.860874   71.081810
H   45.436413   34.454067    3.796129
H   16.256210   65.447769   73.155258
H   15.367894   66.602440   48.048706
H    8.394422   86.062943   98.732018
H   23.693819   39.349632   94.139610
H   77.943542   47.178085   81.397118
H   83.952698   54.361259   15.183919
H   86.256706   56.035370   63.620491
H   75.974510   44.330917   36.480606
H   89.335472   99.646660   19.980246
H   98.310570   97.467140   23.672802
H   56.011665   55.421787   36.060658
H   42.044109   76.388008   23.628365
H   45.014774   94.114922   53.219589
H   22.052502   62.800854   46.885983
H   14.275436   20.518785   11.867604
H   12.903943   64.657303   15.414009
H   67.035126   16.006205   99.602432
H   39.914108   24.277054   72.622986
H   75.486519   66.832329   84.075142
H   38.117970   36.152218   29.272406
H   56.249722   97.369476   80.519699
H   70.669365   16.465336   36.775154
H   29.937613   33.686977   70.165298
H   43.528378   51.011276   55.454411
H   14.512517   45.830215   61.393173
H   12.882757   23.127808   91.660774
H   72.216415    4.053154   40.332417
H   25.394653   75.424759    2.043861
H   93.807724   12.329319   86.056625
H    8.487919   83.977898   74.343315
H   11.688326   58.660164    8.583607
H    5.499275   46.923660   96.666473
H   46.283424   42.622849   58.117645
H   71.875229   69.594101   99.348694
H   92.061188   26.148941   86.622025
H   87.324059   93.991997   20.317596
H   56.293159   42.844353   21.900526
H   39.982452   45.429882   13.534547
H   89.489174   32.678547   57.597530
H   72.083794   55.033535   76.380173
H   67.033928   28.575500   75.429115
H   66.523064   35.918571   48.128605
H   34.296402   57.852242    1.324915
H   15.903902   82.272652   59.832676
H   58.052456   45.120262   70.753090
H   94.407379    8.760952   56.800762
H   25.942879   37.166264   91.738045
H   71.475876   28.918314   16.028542
H   30.220831   19.941668   82.942917
H   84.478302    9.816158   94.447571
H   41.047821   38.100773   25.098526
H   70.804970   52.935383   19.840473
H   90.060379   98.442619    4.294096
H   14.658766   31.278067   91.524063
H   55.804737   45.487991   70.642151
H   30.007835   10.478745   48.282104
H   63.447723   28.676853   45.801765
H   42.932716   36.811996   29.043095
H   46.853825   16.140837   55.186512
H   80.044746   89.320244   32.746166
H   59.062088   89.842094   93.732292
H   59.688423   83.426491   26.621876
H   49.271553    1.345984   31.111174
H   31.920931   83.852676   37.537548
H   92.566673   10.021875   37.201965
H   97.667717   33.414330   33.846092
H   65.882881   24.939081   39.831600
H   53.255024   32.441929   20.521950
H    9.862640   88.110161   57.480247
H   47.282707   78.756325   26.089348
H    7.573903   17.880951   52.947289
H   99.518150   37.682240   28.885189
H   51.227459   73.745979   79.097275
