100
TIME:    7.654, STEP:  7654
H   99.713860   20.112595   92.138565
H   89.092300   19.622372   60.715740
H   11.336199   24.563061   33.493641
H   82.761307   17.305676   20.620487
H   26.612574   86.259193   58.173645
H    9.323541   92.915947   36.747238
H   51.823048   78.172852   89.005920
H   18.296989   50.769497    5.428283
H   65.477943   50.392532   18.294460
H   65.701820   26.285097    7.403389
H   88.298599   74.217941    2.477858
H   63.711716    7.346075   48.108681
H   55.679573   98.700027   64.472374
H   76.101036   81.484108   39.713253
H   73.571480   86.339828   82.820831
H   93.771851   42.282227   97.691681
H    8.617935   88.223633   70.162170
H   64.744949   22.395172   34.200447
H   64.474518   99.446213   66.602692
H   86.305038   43.271160   37.452492
H   10.077499   94.236938   49.499310
H   96.176773   54.244781   67.469482
H   83.550270   32.372734   13.359859
H    7.890600   28.392305   38.621155
H   55.833076   79.159927   93.066444
H   11.518093    0.463483   70.607796
H    2.065543   24.308683   51.837414
H   86.719414   13.702537   19.772413
H   77.599571   43.522511   95.364098
H   94.482132    1.402676   91.860008
H   17.287973    8.405081    3.818935
H   49.035458   41.038692   90.694969
H    9.493937    8.479612   87.329720
H    1.500934   72.279305   49.299988
H   90.468636   80.154839   90.726974
H   37.986500   84.922699   95.362984
H   13.917535   24.229780   11.570510
H   47.637642   18.879116   62.561562
H   21.993687   14.649515    2.583221
H   42.272095   95.641113   40.235367
H   12.155085   18.810919   22.669401
H   55.176537   71.618317   70.709129
H   77.157562    9.401943   54.329060
H   90.610275   41.114525   29.103222
H   92.728096   29.904713   11.083324
H   79.325279    8.903739   14.256483
H    1.532470   41.089180   98.934258
H   56.654781   74.203705   42.163677
H   88.765022   98.546638   39.152916
H   86.437256   47.232212   48.365120
H   42.976032   30.699610   34.110626
H   77.112808   53.504948   71.599335
H   67.640083   66.389221   58.338234
H   99.446045   82.322464   69.566299
H   31.372513   29.364594   65.450867
H    3.128807    4.482458   32.066574
H   81.481964   68.693459   83.946480
H   56.122971   54.061653   16.405268
H   93.928200   62.177975   23.888428
H   53.932739   16.099537   45.912621
H   42.521160   22.625542   17.630470
H   27.262520   56.699722   49.035835
H   93.690407   84.987579    8.612701
H   68.627373   83.457642   19.332111
H   36.122894   49.532551    8.352443
H   31.150017   61.770317   98.748062
H   73.473633   12.981737   36.598003
H   51.651665   55.278008   32.108063
H   38.376816   99.818718   80.187561
H   85.473518   33.084911   85.609589
H   78.983086   74.623932   70.336983
H   42.978962   97.456444   17.081671
H    7.935617   39.714146   65.503967
H   61.710537   64.996460   48.378540
H   31.171362   39.585300   81.633179
H    6.600305   98.121971   80.911873
H   61.929401   63.328499   26.485804
H   91.579163   50.245388   37.141712
H   28.550474   31.036510    3.074972
H   24.165573   92.069389   61.522255
H   60.654701    8.466500   37.452026
H   15.646897   94.107956   46.670261
H    2.006797   35.120029   58.872253
H   76.731667   67.128540   64.341515
H   79.643784   70.116173    5.783568
H   75.136032   90.198212   73.300156
H   78.348137   46.844322   88.515541
H   79.126396   92.593201   16.217865
H   14.525846   68.009789   65.590950
H   89.622253   94.368423   97.830017
H   37.255939   86.725471   95.100266
H   44.617390   71.133377   79.364738
H   76.089691   57.178616   10.900149
H   86.995552   77.532188   42.896206
H   24.259346   64.132004   91.967865
H   26.110641   93.484436   72.109810
H   55.063683    6.927108   96.999840
H   23.503328   65.177605   25.227709
H   44.094048   69.854027    3.933758
H   14.631399   82.219101   60.407063
