100
TIME:    8.404, STEP:  8404
H   48.993645   51.334190   91.451920
H   68.378494   60.266064    8.003699
H   24.227968   78.521561   24.689789
H   82.887192   86.405022   79.511421
H   19.892031   46.374912   37.837494
H   97.692871   92.103416   11.021934
H   12.517022   28.816179   47.656910
H   59.348465   15.655238   36.566559
H   47.041512   78.282288   71.086380
H   45.216896   37.053989   36.771309
H   18.535416    4.395871   30.234022
H   35.084320   44.939587   94.723610
H    7.854472   53.302666   89.940750
H   38.964958   79.172401   96.787376
H   82.680977   19.346115   46.751793
H   63.616669   76.684349   35.435822
H   48.307381   37.829762   38.437630
H   80.778122   85.900444    8.203001
H   76.158936   30.911465    6.118331
H   66.094772   27.345869   88.516029
H   65.571449   19.572277   29.145590
H   68.080009   55.240417    3.600053
H   73.536690   26.275721   91.901291
H   38.205063   37.364471   82.920120
H   29.008446   19.680717   98.605385
H    7.981758   78.353561    0.027931
H   37.392525   93.132156   66.719406
H   23.436869   48.710011   44.564629
H   93.907402   11.568817   59.910301
H   23.239571   82.840256   51.482269
H   46.806583   75.658119   44.481346
H   96.391106   20.319164   21.263664
H   62.324543   53.605537   54.895645
H   33.191727    3.546304   17.704145
H   71.803322   23.369255   36.358715
H    3.183351   43.667938   93.005501
H   85.851830   96.761482   70.667686
H   16.639900    5.153059   15.488769
H   90.335930   98.309898   29.901962
H   71.629868   25.428736   99.243408
H   60.897568   44.542961   40.339077
H   91.970459   74.559448    9.000268
H   83.612030   13.900902    8.503702
H   42.719776   53.705811    2.434184
H   27.671364    0.315974   75.264091
H   69.643578   23.205994   17.303473
H    7.395515   81.875923    6.136400
H   56.700558   81.928467   88.569466
H   10.689362   36.430649    9.234192
H    2.183726   58.647694   95.924431
H   42.924534   58.291634   42.018494
H   13.562929   83.910278   22.366291
H   83.192604   70.737976   14.780890
H   82.073914   70.088730    2.662394
H   71.655830   95.090912   71.825226
H    4.062931    3.693531    6.534805
H   29.029129   47.052681   55.277809
H    0.277031   83.232948   97.086327
H   53.081234   93.866997   66.312012
H    4.442430   73.748184   24.580833
H   89.831039   87.746460   59.152981
H    0.643525   49.718826   15.099770
H   44.608479   33.809601   57.182953
H   20.127014   87.543182   98.968491
H   65.894333   89.630402   78.196701
H   85.078011   24.485466   43.094425
H   13.299707   38.910259   72.807114
H   99.843826   98.170464   67.962402
H   75.757141   45.928490   33.148590
H    0.705621   70.754166   84.018860
H   55.165806   23.592392   61.341927
H   81.218048   72.554100   72.054977
H   59.034744    2.615958   46.272488
H   45.202435   17.531097    3.816989
H   67.300293   40.689655   38.498493
H   24.332224   46.190865   30.447145
H   30.045647   98.412109   39.788376
H   26.812860    1.207452   78.565613
H   64.513618   28.833523   11.444895
H   87.385643   51.213982   96.909203
H   75.337471   16.225595   82.278534
H   71.924850   98.971695   83.925179
H   49.446663   47.662754   30.297588
H   28.331501   31.308050   95.842278
H   43.125687   23.200375   33.079369
H   57.876308   17.745987   25.382629
H   28.439013   92.312889   24.278450
H   91.188469   32.577385    8.441605
H   30.092670   26.250692   59.456917
H   23.312048   63.515060   24.640245
H   67.948997   27.222805   10.939231
H    0.109795   27.540234   93.658409
H   24.165958   79.679436   68.898804
H   59.478920   23.033802   93.467644
H   11.290329   96.949814    9.201899
H   88.057510   63.867126   33.371559
H   95.532677   49.966972   53.867058
H   22.055651    2.290587   10.170145
H    8.365899   73.092705   41.114712
H   61.214619   62.970448   88.156021
