100
TIME:    3.374, STEP:  3374
H   89.152740   12.608278   96.057022
H    7.415821   87.677719   90.830948
H   37.750755   16.643078   83.735023
H   82.042923   93.640556   55.223812
H   64.950439   43.198483   74.221848
H   75.702156   97.552788   12.884216
H   76.138084   89.165977   54.304131
H   54.696548   80.495560   98.403831
H   70.688576   61.897049   87.705696
H   82.638756   64.829002   39.812790
H   86.413773    2.002914   14.749067
H   27.064270   92.812027   52.763817
H   28.642612   57.575714   89.780907
H   88.020500   94.676247   14.002422
H   21.541496   68.648056   88.587196
H   65.863220   16.626862   52.970070
H   52.790169    5.135463   80.536880
H   73.242638   30.623177   82.572937
H   97.819420   19.896097   41.117115
H    1.619705   34.165371   46.050224
H   64.058777   20.324745   65.663971
H   85.849014   48.563019   31.950989
H   40.696266   67.181694   35.817154
H    5.560369   77.147522   56.491909
H    8.911014   18.583900   61.457558
H   31.187620   27.076040   72.925392
H   71.135849    2.222882   66.918739
H   47.853168   13.926605   78.299065
H   84.534897   55.207535   97.682228
H   30.366695    7.333301   51.611694
H   48.844234   24.608912   42.438805
H   78.793678   59.288895   86.915993
H    8.016972   21.624237    1.753520
H   20.660873   64.515785   29.609028
H   96.901840    3.871520   30.181374
H   65.911827   49.530972    9.040502
H    3.409905   80.972153   74.323357
H   24.538559   97.201759   60.534046
H    2.653528    7.904367   17.346571
H   45.400112   96.320297    3.493132
H    4.663236   71.952133   21.835676
H   28.385277   63.287292   61.314499
H   40.303074   83.732819   45.180874
H   63.906311   69.319366   10.626136
H   63.984997   98.771973   44.833431
H   34.558392   27.270679   96.868324
H   68.094040    8.326917   57.850883
H   56.419605   30.121759   77.341942
H   63.652176   53.014069    9.883056
H   96.641502   82.094765   47.681744
H   43.287205   43.905853   88.991745
H   69.102829   50.657684   52.566074
H   78.864693   41.572327    6.912170
H   98.561913   52.158836   80.702179
H   72.150284   54.273247   29.044497
H   97.787857    8.985495   77.767883
H   10.149568   92.191154   76.882881
H   74.821281   58.255035   26.649673
H   56.376022   81.328171   52.460056
H   36.369392   87.124664   67.646004
H   72.535103   21.666168   51.331455
H   79.164757   96.537369   42.692360
H    3.120699   77.047295    2.105165
H   74.726799   60.148224   35.536900
H   66.244316   91.368050    9.774865
H   94.075142   74.541328   45.681015
H   16.866169   65.007874   29.959719
H   47.300575   10.499560   27.499311
H   25.061501    7.352196   48.621975
H   98.743958   17.844656   94.628448
H   14.892214   65.832832   21.675140
H   95.765793   39.548737    3.649777
H   87.000046   51.413250   75.239738
H   55.939571   35.865852    2.683142
H   24.846094   33.448376   57.170200
H    5.418865   23.814024   68.901031
H   73.292946   34.110542   50.720341
H   90.496979   30.102564    0.772069
H   23.308790   43.608227   55.327560
H   34.058113   25.198044   30.248001
H   76.903854   64.187241   81.645096
H   94.478897   66.262344    4.645334
H   31.271818   63.575256   51.256687
H   82.275589    0.879141   55.253296
H   88.043106   37.839153   20.680840
H   73.640808   32.986366   76.083954
H   92.496544   58.035637   84.428589
H   10.267466   35.163635   60.654137
H   25.704029    6.313677    0.596031
H   68.032471   70.461502   44.829254
H   62.100586   55.616779    4.714517
H   27.934755   49.249046   97.815453
H    1.734616   28.753691   79.921043
H   73.338264   17.890278   54.309227
H   98.254585   47.507809   93.618584
H   72.600143   62.495613   93.177269
H   94.790436   61.307522   43.147972
H   19.251608   44.965271    2.049500
H   47.983788   51.394283   62.430054
H   48.782215   92.051949   72.712204
