100
TIME:    5.194, STEP:  5194
H   66.073402   45.705025   94.390762
H   57.029366   86.318909    5.603417
H   69.037018   47.580841   62.378071
H   82.348404   18.657631   55.463295
H   48.648865   89.079514   24.873791
H   47.478695   95.581047   93.125237
H   80.752144   12.060654   96.630569
H   11.648140   37.948696   31.298038
H   25.949501   86.911392   73.144035
H   32.900902   90.961510   11.079878
H   17.121796   75.234482   39.437145
H   57.602348   84.039146   23.214224
H   12.627090   47.499245    8.919922
H   97.905495   89.066505   52.506622
H   43.678261    6.078675    1.100550
H   92.683746   57.442825    1.893340
H    6.436506   25.513752   46.218658
H   12.137984   42.095348   19.474962
H   26.166733   96.246582   37.001804
H   52.579826   95.514687   69.964302
H   56.057396   39.138504   16.270576
H   60.334183   50.979095   76.961212
H   16.396645   52.379753   83.743332
H   36.460369   98.963593   21.321159
H   43.816315   74.250076   74.898720
H   22.869139   73.111420    1.998042
H   14.194063   26.568047    3.022049
H   94.287514   98.878082   38.458992
H   24.109886   20.332312   11.649326
H    0.155035   62.288200   96.297127
H   20.471294   87.811600   98.446190
H   93.709663    9.009023   18.429420
H   36.215488   88.464912   65.713493
H   97.559784   97.723717   52.935844
H   51.662888   66.293503   41.006058
H   24.142988   92.244713    3.097122
H   77.970764   14.319920   17.732037
H   49.313450   63.904293   88.967934
H   25.831661   68.248772   40.974792
H   73.976067   25.938145   46.687855
H   80.278824   34.401642   64.714088
H   64.813347   44.967773   46.815708
H   55.979801   94.646820   76.641396
H   47.688457   99.823853   88.577927
H    6.115061   26.963341    0.574630
H   11.077286   61.984425    4.262024
H   82.312790    7.304815   75.323723
H   56.516804   48.866486   89.953239
H   16.857162    2.283555   37.283188
H   34.811504    9.787352   20.389381
H   43.148350   68.196274    8.180028
H   57.550941   81.775299   33.085640
H   16.610386   52.125305    1.209031
H   56.408043   22.457756   61.013145
H   27.241287   13.781997   44.525501
H    0.064796    7.070139   15.810791
H   25.529160   39.676201   49.980110
H   39.299210   86.378242   79.769394
H   99.917381   58.228394   12.736408
H   16.269100   27.016117   15.880867
H   87.341858   37.027035    9.431487
H   14.571295   79.597061   60.344078
H   26.680609   52.854050   77.302277
H   99.701698   70.057068   86.122314
H   38.481178   46.008259   79.263481
H   82.270439   84.064018   53.293144
H   70.844086   27.933201   17.828606
H   21.580833   14.587558   14.505836
H   15.769463   76.578621   34.474129
H   35.616364    9.384712   90.796051
H   57.099876   42.000610   99.840767
H   45.697769   79.146118   36.902039
H   68.332794   61.388016   28.573921
H   15.869671   20.691109   94.544212
H   12.595473   36.044964   95.138031
H   48.449272   40.459534   46.438747
H   38.536427   76.365425   82.906929
H   76.003891   11.097042    1.283750
H   10.585177   38.262310   75.634087
H   44.801857   26.076385   73.453522
H   12.510298   83.015976   90.422523
H   31.037781   78.148331   52.458641
H   46.407570   93.981384   24.593817
H    7.489271   56.621017   89.025543
H   99.423851   23.996803   44.252296
H   31.751453   99.837593    2.470221
H   14.050253   25.706818   71.213470
H   39.560715   89.450806   41.728203
H   63.473740    4.979036   85.710579
H    7.118821   95.579025    9.891232
H   36.582573   53.891689   43.149578
H   62.602299   86.117996   32.494118
H   18.398714   83.367134   20.664570
H   49.247818   28.287062   77.022621
H   66.790047   84.482719   35.437717
H   22.924728   90.626740   99.171860
H   50.326866   65.753700   38.477493
H   25.930532   60.461487   72.918434
H   61.282898   59.239590    9.984451
H   61.828846   45.346684   97.385666
