100
TIME:    0.986, STEP:   986
H   50.642982   31.600014   98.243301
H   73.842842   58.205845   40.196774
H   96.705292   44.840496   11.762611
H   81.642105   92.026085   86.117424
H   86.339539   51.789772   38.970085
H   12.726685    0.140528   76.392937
H    1.295022   27.916922   67.559258
H   42.388641   73.902878   17.662323
H   29.390236   91.493423   38.021851
H   47.894722   30.541245   46.301872
H    8.539703    5.916432   44.772758
H   18.206661   73.113838   22.744265
H   80.542419    2.052874   27.128794
H    6.260923    2.037203   32.275227
H   92.494148   81.951080    3.375369
H   61.879364   25.493961   51.193832
H   44.793602   47.202744   63.128151
H   22.214539   46.751556   65.363571
H   60.617889   19.716570   15.309633
H   65.959267   84.859436   83.454948
H    5.765936   58.058777   30.482849
H   56.891956   45.401344   35.299435
H   72.579506   86.603142    4.138662
H   27.431473   48.507267   33.845764
H   94.319572    7.977283   43.837433
H   42.137913   98.230606   96.755600
H   77.055450    1.489276   19.532263
H   49.344704    2.462400   99.364334
H   32.610764   38.549320   10.563957
H   38.800304   66.436386   61.772701
H   54.888187   10.462980   31.387901
H   28.013678   25.270638    7.985085
H   39.810322   96.342278   86.623619
H   19.762932   83.361763   30.211946
H   56.263252   84.386024   84.769135
H   58.283905   61.940136   17.251646
H   74.368675   68.426613   86.158333
H   23.238220   40.907574   92.021156
H    6.392612   59.459801   47.623955
H   70.322487   19.876970   15.610128
H   67.858078   90.013985   65.574265
H   43.005119   56.111580   49.124012
H   19.733831   69.412689   72.692177
H   16.396639   29.295271   77.139412
H   71.126488   92.988968   40.483208
H   65.358635   81.739799   87.184898
H   46.491322   78.930435   36.048531
H   56.292072    5.535226   29.585997
H   93.853386   50.788010    5.141179
H   46.569363   45.756947   14.703270
H   43.469395   74.451500   63.813099
H   53.050346   72.246246    9.331978
H   29.332720   27.725891   45.604919
H   53.857037   91.116585   75.326248
H   62.265564   44.943119    8.772985
H   94.799942   11.495707   59.061035
H   58.758507   61.096382   49.764290
H   52.638855   83.771965   88.157791
H   68.039650   80.429169   35.787464
H   93.953461    3.574172   35.565392
H   21.898386   32.717766   37.519165
H   63.916077   18.767807   50.742638
H   41.112801   39.916115   65.914650
H   10.745687   47.158081    0.368188
H   71.459740   82.094231   87.385567
H   40.773689   93.256172    4.485736
H    8.459719   82.450653   14.666306
H   12.256129   73.927353   13.339103
H    6.043160   78.938660   98.391304
H   50.359444   97.735497   99.656891
H   90.721657   28.313978   50.321903
H   92.667130   18.802284   28.811522
H   42.703140   69.533394   36.466343
H    8.488963   86.983734   44.607689
H    9.711568   30.046659   76.143242
H   48.970119   70.767113   29.584713
H   56.478092   41.086540    8.481003
H   78.304398   86.248878   68.894516
H    8.813005   50.614109   28.682709
H   51.170273   55.255707   35.976318
H   30.177166   39.482281   38.919064
H   15.303108   50.666885    4.328495
H   80.183464   23.713991   23.811375
H   17.997229   96.534889   73.369850
H    4.318941   87.209015   52.170784
H   28.598446   45.272671   10.254152
H   33.007439   31.662697   70.559357
H   71.827820   26.352512   85.492043
H   76.144722   39.272789   20.133133
H   79.161514   68.711929   59.461895
H   64.373726   26.673342   54.284252
H   51.240971   69.662743   52.309090
H   48.547264   57.173111   95.194206
H   42.528770   73.041924   93.299736
H   39.545475   61.410728   38.742973
H   75.361130   56.794792   16.521004
H   84.338516   24.264753   80.483185
H   10.485408   24.632874   40.260208
H   61.741264   41.100552   62.457668
H    0.475360   53.378155    2.719743
