100
TIME:    0.428, STEP:   428
H   88.378822   82.771584   98.754166
H   89.364601   27.950195    4.998560
H   87.118073    4.696229   18.314445
H   81.548447   15.016363   16.702780
H   91.337494    7.063608   54.100182
H   21.379448    0.747825   21.131571
H   30.539455   90.237877   23.922930
H   86.246338   25.629589   68.897346
H   43.106941   45.142990   73.146919
H   63.144020   22.531319   24.449656
H   60.443512   83.464127   98.522667
H   39.505444   45.144020   62.463463
H   16.037640   35.812912   82.588982
H   33.889790    3.757645   89.810677
H   85.708168   31.792768   30.198366
H   84.314819   74.301888   97.512192
H   89.655998   10.301315   12.323449
H   10.290626   73.886963   84.708298
H   51.928940   96.307068   85.911499
H   81.063820   96.558228   45.387047
H   38.878418   13.608192   45.625931
H    3.387189   44.664848   82.812386
H   80.029610   91.141319   20.104507
H   79.275681   41.814945   75.288467
H   14.276011   52.230900   39.719070
H   44.696491   14.856576   49.056633
H   25.171480   24.685184    8.459280
H   96.428032   76.416779   80.922134
H   20.477737   87.923698   36.939850
H   17.405058   80.246750   17.413353
H   32.938053   60.423470   75.543571
H   92.781647   40.685966   59.641975
H    0.504861   37.167274   36.354576
H   96.185829   34.498962   53.720055
H   70.133217   26.566788   50.789803
H    9.767854   18.107309   19.171644
H   20.850117   88.861183   42.189953
H   46.299484   51.120602   52.643261
H   31.478550   71.371452    1.104307
H   22.880959   72.115944   71.709099
H    5.993427   70.865089   52.424274
H   93.154961   31.066462   22.908163
H   14.927688   66.066528   32.388329
H   52.028488   19.944326   22.579475
H   19.529991   15.005080   92.732239
H   72.485191   71.250053   84.996696
H   40.599354   48.829868   31.280462
H   56.262272   99.789902   95.060181
H   77.539787   97.002975   27.400480
H   34.866314   37.263828   53.729042
H   43.511967   28.323240   57.929646
H   25.932444   24.023407   45.965202
H   17.757387   24.490417   78.013161
H   66.776733    0.218567   50.702595
H    6.685884   96.025269    4.037912
H   94.101761   12.082136   78.056671
H   23.385414   77.197121   96.693703
H   94.189148   36.467552    2.530302
H   24.032562   56.852783   78.626236
H   30.775070   60.686440   51.436241
H   86.698990   58.665413   81.025177
H   83.720581   23.961594   75.990082
H    3.263276   77.966988    4.195494
H   72.430183   44.122696   15.519567
H   49.310951   26.660187   35.419815
H   75.052681   20.995960   71.492561
H   53.229576   63.157200   87.725693
H   50.800941   42.015366   86.663475
H   78.234337   19.032967   33.389111
H   39.056572   69.672020    0.830745
H    8.440924   66.283501   57.014225
H   38.676502   37.321114   87.957832
H   79.085190   97.137093   50.774799
H   20.770340   22.294680   77.771294
H   82.807053   29.252691   33.843678
H   35.777050   35.003166   67.129471
H    5.814204   89.448357   98.607117
H   52.088547   22.734516   38.077305
H   82.068016   52.248699   22.460808
H   78.535568   85.644844   84.048645
H   19.257442   33.709515    5.569495
H   73.436989   47.022720   50.990692
H   44.876537   14.401179   70.664764
H   79.612640   48.786106   24.337074
H   31.490149   22.111801    6.262685
H   41.442425   24.774994   71.504845
H   95.739861   72.233833   43.951839
H   62.845123   71.027321   91.290352
H   64.565132   70.341850   24.698982
H   28.495186   91.675278   39.512646
H   41.538090   96.542877   42.500317
H    9.954466   27.695463   41.678856
H   12.745338   40.455078   52.026176
H   88.595436   39.194046   55.675526
H   49.192295   11.391399   25.921291
H   29.272659   78.830070   45.342262
H   28.629457   92.242577   12.574295
H    8.436629   19.881836   49.187561
H   88.323235   38.695232    9.200855
H   65.821732   67.711052   56.463608
