100
TIME:    2.042, STEP:  2042
H   79.230377   34.759445   97.276505
H   44.468330   15.458372    6.808893
H   14.854971   20.813534   99.364723
H   81.819351   48.520226   28.233803
H   76.881042   36.432819   10.338121
H   96.352058   98.995842   80.972130
H   45.948650   99.222267   50.139915
H   59.389122   65.259827   20.703972
H    3.431729   89.963333   71.551414
H   19.037645   45.703453   87.652000
H   10.313156   48.406727   43.053570
H   77.903748   26.045366   47.576942
H   13.371184   38.163658   22.171009
H   53.973564   98.781837   12.636585
H    5.337832   87.627777   52.616341
H   19.420513   33.128426   63.537857
H   59.893707   17.037727   59.272430
H   44.781189   95.398018   28.753838
H   77.067894   64.020035   70.941742
H   37.502975   62.447201   55.361488
H   43.101456   52.930485    1.821352
H   58.148136   46.795143   45.382767
H   58.480385   78.014763   73.925980
H   29.317619   61.172306   55.418396
H   56.550041   24.225029   51.628204
H   37.295872   66.761368   97.775887
H   85.995033   57.595333   40.487583
H   60.242973   51.753368   34.269215
H   55.572189   34.357857   60.645714
H   79.292976   40.300644   45.721432
H   96.428230    5.161848   47.827427
H   94.690430   96.095634   10.225868
H   14.192997   19.079769   81.756439
H   64.380608   86.585709   85.725327
H   30.014412    4.560540   49.071106
H   50.098766   44.894192   13.620095
H   75.652863   29.754503   69.366943
H   79.590904   21.579693   66.538490
H   58.921303   36.917320   46.411499
H   70.859108   21.017794   98.694107
H   95.693840   26.249624   90.453171
H   48.097870    3.502603   98.736801
H   28.829779   75.745209   48.968651
H   48.963417   46.995094   80.389572
H   79.526726   51.322475   30.849966
H   51.742931    1.864797   91.461952
H   57.641712   35.895531   45.071968
H   56.348469   16.407663   94.925346
H   24.720198   63.329800   63.020180
H   68.715355   61.829945   40.844044
H   43.388828   72.501518   74.947372
H    4.370810   74.257355   40.008854
H   51.238724   33.848938   84.273857
H   29.405132   73.891487   21.923998
H   78.196960   37.517529   17.733595
H   96.121231   10.385904   23.112305
H   25.705942   30.626167   50.198677
H   74.005463   84.045700   60.958572
H   51.324265   25.048426   54.718651
H   24.268116   84.742767    5.530938
H   88.511307   83.609200   55.184452
H   26.437183    8.937258    2.959146
H   12.739956   67.904182   93.468918
H   83.260193   52.902466   71.702553
H   13.371810   97.752441   85.728851
H   75.902016   40.759102   66.924324
H   23.735308   18.960585   65.650101
H   39.310966   34.321960   63.822010
H   58.676849    3.061225   32.161842
H   71.752747   50.850616   97.433258
H   57.189919   56.462418   37.656864
H    5.595382   83.754974    6.126919
H   73.849304   17.301342    9.387974
H   85.251335   20.157385   81.846428
H   60.622993   31.549223   56.195538
H   73.934441   38.445679   58.527805
H   52.355865   49.560478   27.162962
H   27.917202   17.198870   27.211788
H   59.432877   47.520359   40.460381
H   99.381721   97.741882   45.001015
H   50.842449   50.407085    2.034703
H   94.536209   57.563370   16.026690
H   47.000225   41.340027   24.390171
H   90.640999   86.898170   76.915741
H   52.901245   21.155449   49.803406
H    4.291715   84.061226   83.585854
H    3.535295   54.882889   20.913877
H   88.827332   41.807007   74.513130
H   98.058784   80.477104   11.493437
H   85.798294   25.261597   97.215309
H    7.589712   83.693344   76.585037
H   29.374971   49.082767   72.429893
H   16.302666   88.817856   76.889725
H   44.595249   37.094967   64.498787
H   21.286762   66.820618   63.009575
H   62.582413   15.095211   61.976990
H    0.518369   84.866798   19.752228
H   14.362666   33.624084   23.363373
H   11.437065   45.652554   74.001358
H   66.056442   26.252300    1.011657
