100
TIME:    5.583, STEP:  5583
H   39.766518   10.032445   94.034622
H   46.285805    7.397377   30.131123
H   75.726517   75.567520   57.810574
H   82.413696    2.629841   34.139404
H   45.164627   20.259493   14.327473
H   41.445087   95.159615   31.649248
H   60.363651   38.328846   27.050951
H   81.073502   71.601639   95.580849
H   16.387138   49.510742   48.657539
H   22.271479   96.546974   26.313772
H   80.937973   90.886841    1.967055
H   42.754272    3.537694   95.525490
H   87.804153   23.975681   70.266777
H   78.644249   87.867500   82.108955
H   48.408989   71.331467   82.403076
H   77.043259   23.419571   69.603241
H   75.155434   51.241909   81.630859
H   20.456480   23.168774    5.990606
H   32.225513   12.565845   57.494701
H   42.100403   87.252235   96.449257
H   32.973579    0.411288    5.712505
H   97.627991   51.495499   43.834244
H   11.202249   49.216042   72.613953
H    0.316398    3.617159   92.430847
H   29.903332   43.400421   77.771584
H   21.095858   61.613411   65.416611
H   80.650955   10.397543   10.740883
H   61.463497   17.035255   51.318619
H   32.568214   55.625309   93.261414
H   15.070583   52.660545   27.220734
H   35.781235   22.694225   67.669746
H   18.271091   98.261673   82.417793
H   63.617504   60.003380    0.757684
H   13.996291   62.074089   36.547462
H   41.993683   36.888199   64.692429
H   57.958149   22.713314    1.873737
H   15.281693    0.072879   48.383831
H   33.236691   56.784458   16.418957
H    9.410932   59.772636    3.278447
H   37.337345   89.521431   77.293846
H   53.692963   47.747993   73.878761
H   29.852165   62.427544   65.088844
H   59.330486   96.979538    4.740537
H   22.850651    6.353382   26.612406
H   72.371056   11.616456   33.863262
H    6.057557   69.404007    5.842730
H   85.351852   28.461010   79.057259
H   56.537579   52.873062   14.022285
H   28.226936   70.064941   21.765362
H   42.970081   15.708181   93.182419
H   43.118671   30.641241   12.280833
H   76.456047   45.678989    7.547431
H   24.679928   54.380859   78.617790
H   47.400665   16.109558   78.179100
H   96.267754   47.872768   47.834637
H    0.549336    6.660949    2.568314
H   50.188896   28.451851   86.977135
H   10.334109   49.642387   69.749985
H   30.596083   74.664436   82.873543
H   90.598755   56.917049    4.816780
H   11.880274   18.937012   79.100914
H    0.766261   75.976303   42.741852
H   53.091068   26.309420   50.627380
H   26.413784   72.176102   75.562759
H   53.922821   14.938816   15.489501
H   58.373436   64.725609   76.293861
H   39.634338   41.380909   36.610184
H   94.709618   36.835606   33.102283
H   35.158314   48.627556   10.075742
H   43.495964   28.950413   89.976929
H   44.747749   15.533449   95.175331
H   13.623587   66.236038   65.384201
H   42.969681   42.147545   18.599030
H    7.307468   96.071312   71.430717
H   31.350569   36.599949   24.627575
H   57.646591   65.392143   20.264750
H   73.855797   42.648945   89.786369
H   94.279816   85.661964   22.767488
H   29.238232   37.119694   79.973061
H   25.728073    4.886437   39.940735
H   20.122454   87.040359   13.672074
H   60.230270   80.677414   19.922895
H   71.013039    0.486833   61.641293
H   34.251595   89.908249   53.495510
H   80.483131   99.664024    6.543179
H   22.797497   14.126216   29.483810
H   40.030678   97.423195   89.762436
H   45.818993   58.317204   37.690712
H   71.546249   83.319984   82.529060
H   72.727112   79.576462   23.796694
H   52.502037   74.896591   51.364544
H   91.384361   15.374425   39.904800
H   43.334457   95.036659   50.746540
H   86.843178   51.887280    3.252295
H   60.064934   49.639118   44.376835
H   55.054504   75.265228   79.079620
H   19.450121   88.077751   16.105957
H   27.358061   63.773590   66.691917
H   42.751740   60.916416   77.402672
H   85.992691   35.365856   59.913464
