200
TIME:    0.055, STEP:    55
H    3.786477   63.088970   12.176191
H   26.315372   30.177141   82.386917
H   22.015265   61.040733   36.235954
H   11.606544   74.811440   49.337399
H   17.174440   79.040451   56.318356
H   95.636963   57.836185   71.025810
H    0.678954   55.435394   46.070545
H   98.742981   80.897644   31.639046
H   79.915390   90.279701   52.232491
H   17.373577   77.490288    3.369379
H    5.745346   90.642159   87.115494
H   30.012802   37.084927    3.927357
H    6.633578   80.868126   68.873924
H   13.148247   52.426411   33.351162
H   28.553802   70.520447   43.433781
H   34.692787   33.588837   58.313847
H   75.504486   99.054054   24.414087
H   40.955280   74.273567   46.813957
H   58.870144   36.399311   39.760464
H   89.467682   82.245262   44.642239
H   55.864883   67.523216   34.316158
H   94.147606   41.743065   77.703865
H    0.545145   63.886559   53.575180
H    4.719435   86.421181   92.175446
H   95.205460    5.263397   52.011646
H   18.814234   54.126648   13.066664
H   95.313530   55.084675   41.643585
H   90.264679   62.497646    0.244491
H    3.276803   62.152901   39.421642
H    1.409455   15.808434    5.025158
H   13.603024   43.720219   15.968630
H   35.290215   59.170395   89.048416
H   31.593323    5.004754   70.919441
H    2.549664   63.376083   35.056694
H   56.866383   97.445358   35.626293
H   39.104328   54.140034   77.355087
H   80.954636   78.421959   84.566078
H   42.065964   39.969833   23.485399
H   59.917137   53.025200   40.319408
H   91.856926   40.449253   70.922943
H   80.450424   13.868511   95.383614
H    4.131127   46.986225   45.316692
H   80.032852   92.031769   43.458813
H   37.693405   54.249447   12.131867
H   22.456234   70.650810   37.687813
H   43.663189   18.653185   40.675873
H   76.487900   35.275730   92.122536
H   94.619720   65.553429   54.298355
H   79.925789   35.772655   61.032951
H   68.737244   16.966639   13.539353
H   82.609100   72.837692   35.200447
H   28.210127   32.513775   59.563503
H   47.188038   99.716537    5.507873
H   25.159956   78.279663   78.963562
H   85.029556   80.499275   96.756439
H    7.677223   76.907593   72.590332
H    5.958450   16.045387   51.639072
H   65.387497   54.278744    8.642478
H   32.084839   70.903702    2.652050
H   47.382065   97.027992   70.414146
H   51.018673   18.985806   47.641605
H   86.612755   15.986636   47.648392
H   66.350609   21.374062   91.126297
H   19.643663   64.888397   99.537086
H   68.374474   73.321121   10.364516
H   45.996609    9.373893   29.537949
H   93.085548   27.064260   82.012947
H   98.377419   91.029320   83.608871
H    9.942172    3.353238   64.321381
H   46.301895   38.405556   50.992474
H   58.546322   73.392403   68.332840
H   37.339523   28.684589   46.059822
H   71.622208   22.464779    5.690235
H    1.838331   13.031045   55.187286
H   76.892380   97.876610   76.311409
H   48.637665   25.608032   64.086319
H   96.209518   23.063086   74.762383
H   33.407349    2.601170   54.293602
H   10.124062   21.450981   39.035862
H   71.063683   91.698708    3.035199
H   35.516270   33.228600    3.879663
H   18.501989   71.917007   93.576378
H   11.721487   11.637006   95.692581
H   30.706905   55.810173   87.821869
H   45.496105   97.367599   63.024982
H   19.455126   92.247177   31.633930
H   27.563726    2.398610    1.347209
H   76.869957   25.429691    4.464437
H   60.028980   71.590538   76.493073
H   24.370739   77.754959   56.900799
H   48.997589   33.295753   81.577354
H   85.344070   86.912308   94.331131
H   38.471375   18.948557    0.998682
H   68.323959    1.080110   64.024902
H   20.437162   59.428680   60.234741
H   76.933357   23.573078   37.759789
H   76.796059   20.677927   90.361656
H   11.980457   25.563963   46.841976
H   41.209877   71.631248   52.225636
H   63.987766   94.921021   27.205240
H    1.612279   75.311340   60.228092
H   83.692955   73.857689   66.885071
H   19.344519   43.930740   27.917440
H   12.986313   67.597916   82.815834
H   25.583977   29.903934   19.089630
H   80.099152   35.830582   52.552059
H   56.894688   27.799665   57.120209
H   65.840828   27.171314   25.895126
H   68.095062   42.424877   90.186897
H   98.424088   30.639791    4.631827
H   44.760517   97.674408    0.665690
H   78.565559   58.692493   88.403885
H   60.307178   78.127861   97.959381
H   63.850853   23.385717   79.724640
H   70.023888   74.264938   33.259342
H   21.588322   11.209471   70.588554
H   40.181179    5.837652   82.023422
H   41.709721   17.890587   37.676476
H   11.836556   50.767925   92.682953
H   65.900467   42.982540   42.441532
H   38.623726   20.530071   93.581955
H   26.271484   31.862545   42.746365
H   27.776251   29.624996   18.541126
H    6.802975   73.976578   25.966505
H   82.450630   13.529780   98.931816
H   40.944622   57.290306   29.103382
H   99.985100   48.326126   78.199463
H   79.475266   86.119011   33.440113
H   90.191071   59.180237   89.106232
H   58.778328   25.026201   63.349869
H   41.141037   91.791229   96.341469
H   88.800949   84.216507    4.964292
H   93.041847   73.593994   95.999001
H    9.992071    8.259643   47.429737
H   95.286980    4.715171   64.917976
H   67.285408    1.864281   86.407089
H   68.586433   86.093102   46.129028
H   89.640358   69.996529   86.121460
H   41.477646   41.746468   71.593842
H   43.347733   17.962797    0.598027
H   41.458836   68.509636    8.934092
H   65.754913   35.389774   41.934242
H   60.952595   53.355896    5.624076
H   66.190178   33.224552   75.058784
H   31.606068   75.902596   43.019123
H   39.161701   58.787998   38.706470
H   40.355797   97.587959   48.606529
H   47.703979   80.305099   69.886375
H   60.239597   72.515671   99.783562
H    3.535048   86.607582   96.910812
H   82.741066   58.168087   52.740814
H   26.000031   12.228619   53.949810
H   67.581505   38.756046    9.959270
H    5.019435   96.895882   80.524170
H    6.276568   48.993347   57.405987
H   58.010193   43.070187   48.369335
H   57.374767   55.335930   78.565231
H   43.415852   39.628151    5.389906
H   20.848944    2.431406    9.465456
H   65.753189   64.492188   71.141541
H   52.138721   91.925293   88.334747
H   52.290096   24.015020   37.146664
H   57.256023   42.635609   37.308975
H    4.484075   14.744878   79.114136
H   60.725540   15.810990    8.006789
H    8.726315   70.324944   63.313118
H   78.085449    0.559111   50.260506
H   23.470604   22.515453   40.362720
H   91.559189   28.771835   37.293774
H   18.030437   11.855803   92.486633
H   82.899231    3.433740   35.991600
H   52.553932   72.317993   56.890011
H   34.098476   85.403458   95.629410
H   73.499565   78.979019   69.958847
H   80.036346   96.428223    7.929544
H   95.195335   46.661552   23.109257
H   37.318245   47.142017   79.169052
H    0.090390    9.024429   62.514629
H   80.332710   25.680216   71.298576
H   95.100845   52.470619   83.775253
H   84.795387   78.559891   46.020657
H   15.496202   29.880215   62.862438
H   74.151764   90.357712    2.408514
H   47.452675   24.877712   70.384331
H   83.130577   96.358406   79.159012
H   95.387444   34.662720   83.028297
H   24.910576    7.693510   95.166336
H   99.308876   59.388664   19.053339
H   11.975843   60.348419   64.429077
H   46.249409   59.279667   63.365681
H   38.982552   37.145046   80.622566
H   49.169506   79.901657   26.980783
H   99.991196   13.122808   53.568371
H   38.335758   56.147144   29.584740
H   91.243256   62.518600   22.421438
H   74.876480    9.929492   32.100975
H    8.231565   80.514931   97.222549
H   34.286160    1.082812   52.184093
H   14.380327   11.094250   86.290916
H    9.937348   41.260231    0.319077
