100
TIME:    8.010, STEP:  8010
H   75.638664   87.466087   91.812637
H   79.260147   38.914577   83.161697
H   17.455492   50.175156   29.314491
H   82.821060    2.637569    1.106498
H   23.422556   14.794072   48.520752
H    3.802461   92.530266   72.003853
H   33.166401    2.210251   16.845600
H   90.316086   81.568504   72.742821
H   56.726784   16.164059   95.885727
H   55.978310   31.396730   21.343575
H   55.184341   88.542465   68.184937
H   50.123245   25.190289   22.768295
H   32.978706   77.150772   29.095488
H   58.473778   80.386818   66.805717
H   77.895454   54.540146   65.698761
H   79.458191   11.145157   68.140900
H   79.990425   11.770786    2.570256
H   72.355362    5.072484   21.860249
H   70.020721   14.381574   85.359833
H   76.711899   35.712353   61.690651
H   88.951973   58.797329   39.838268
H   30.306841   54.717377   37.152771
H   78.797157   29.478594    3.173938
H   74.814026   32.651093   12.181188
H   43.100166   50.927895   95.695595
H    9.839565   89.968674   37.105675
H   71.368484    9.509908   58.901897
H   56.680405   30.319418   31.539762
H   85.340355   75.821945   78.535362
H    8.132620   92.591660   20.160511
H   31.298792   40.327827   75.653374
H   71.513603   31.203823   57.738243
H   34.570316   82.432899   19.401014
H   16.543205   39.653938   34.301880
H   81.608833   53.200615   12.386127
H   68.933334   12.806462   94.243965
H   48.061901   11.191313   39.621914
H   32.924721   12.363657   87.685005
H    6.966088    6.893793   68.083855
H    8.741337   62.314865   68.245728
H   87.825150   31.025061   31.056608
H   25.174889   73.014374   88.885033
H   80.221283   11.537449   80.043739
H   67.876816   47.089867   63.909702
H   61.846634   15.859936   41.547638
H   74.729698   15.692542   15.702787
H    4.315418   60.449287    2.352578
H   56.676510   77.870392   64.190956
H   99.172981   69.061043   24.951290
H   93.911865   52.650761   23.472855
H   42.951588   96.329323   37.864227
H   94.414139   20.469931   48.230316
H   75.022346   68.453430   37.663551
H   91.200073   76.515518   85.276016
H    3.026366   60.563911   68.476562
H    3.572204    4.107981   19.947495
H    4.052070   58.421303   17.805244
H   29.614305   20.441740    7.235126
H   22.005882   77.219872   96.558197
H   30.441498   43.463886   35.787132
H   64.977585    6.070179   89.873634
H   14.627388   53.386124   32.926857
H   17.859043   60.695099   84.200714
H   93.071953   85.396912    9.666083
H   50.254578   21.098593   41.505692
H    9.281624   44.072441   19.798069
H   44.911499   25.289417   53.785259
H   27.060417   75.637627   49.126923
H   56.120865   74.238823   57.860764
H   92.703682   50.964764   84.854523
H   67.678825   50.402069   66.067329
H   13.663682   85.636131   43.175678
H   84.723862   22.105135   56.375591
H   53.874691   42.466587   27.226137
H   48.320526   40.109501    8.625237
H   15.016767   20.938274   56.956985
H   94.261436   32.514748   32.799469
H    8.303842   26.968716   56.803303
H   45.620941   29.990826    7.047895
H    6.707733   72.676689   30.852455
H   67.624123   12.149484   58.729675
H   42.360214   96.416611   16.887924
H   24.524523   41.073643   92.774582
H    1.225067   97.591919   31.827480
H   62.309860   47.846416   71.273369
H   66.944382    3.273688   98.021774
H    2.124580   20.960228    5.491016
H   84.851860   64.107117   12.526733
H   21.914898   48.187950   62.679329
H   58.147991   79.723404   10.556009
H   51.824909    5.949119    2.618431
H   70.957787   97.908340   86.149467
H   98.910065   67.859917   38.430176
H   21.401735   99.130333   66.900780
H   18.103386   32.242699    0.148639
H   55.514755   79.426086   53.722054
H   26.805998   27.356289   76.526146
H   22.816164   82.793999   18.080385
H   27.134941   71.391319   74.116463
H   36.742924   73.082260   26.111317
