100
TIME:    0.497, STEP:   497
H   83.712563   76.443916   98.690994
H   87.445244   31.691257    9.350938
H   88.303589    9.660316   17.504272
H   81.560028   12.173388   12.920548
H   90.719467   12.594262   52.229256
H   20.309483    0.672727   27.964872
H   26.923157   94.896767   29.318819
H   80.823074   31.598759   62.562187
H   41.410789   38.508942   68.803886
H   61.258354   23.521793   27.151812
H   54.025299   86.240509   91.875984
H   36.871723   48.602654   57.551888
H   11.648675   31.638336   75.730675
H   30.473270    3.544902   95.061272
H   86.547295   25.629610   26.881605
H   81.540543   68.266914   91.784653
H   84.108498   14.864395   18.605658
H   11.765019   70.531509   82.316208
H   53.003380   99.201370   89.547012
H   79.196053   95.111603   50.094368
H   34.783859    6.738843   43.753426
H   10.003470   44.755920   76.937447
H   79.108360   90.580147   18.130138
H   72.864838   42.642490   70.164215
H   11.808378   46.758678   40.228653
H   44.380108   12.800742   42.589462
H   19.221525   21.816940    9.828520
H   90.605736   79.637466   83.202621
H   21.978058   94.183983   33.678101
H   20.050623   78.539017   22.898472
H   35.652317   66.611107   70.083458
H   97.138367   38.779770   53.254295
H    5.365240   32.118828   42.570641
H   99.101189   28.175507   50.813118
H   68.418114   21.350937   54.991226
H   15.767293   23.527678   18.934225
H   27.468109   86.334328   47.626904
H   43.447823   49.857700   57.512196
H   28.376572   69.898506   94.491241
H   16.381939   65.656670   77.137627
H    1.278210   73.232964   54.050411
H   86.953636   34.163437   26.149908
H   15.521894   66.480301   37.372025
H   47.622284   21.100626   29.325916
H   13.544765   12.282788   98.636658
H   71.603951   72.547173   85.267281
H   41.327930   52.552242   31.870062
H   56.265957    0.500414   99.329514
H   79.557060   91.288071   24.648050
H   36.313465   38.314053   48.903275
H   43.506702   21.661554   58.657169
H   29.285528   17.620724   41.435287
H   19.188745   24.890503   74.005989
H   65.179550   99.092979   53.747456
H    1.192721    2.074034    4.623432
H   94.188095   12.009621   75.707748
H   27.759506   75.206169    3.256210
H   89.051208   29.951424    0.752948
H   29.474251   59.768143   73.329315
H   26.221992   65.990005   49.473717
H   91.051498   55.456833   75.645081
H   81.271637   23.319351   72.868362
H    7.943617   73.261772   99.461769
H   77.168037   44.498039   13.646009
H   52.049957   21.149273   41.845924
H   70.813881   17.565754   75.572380
H   47.693657   65.542786   91.056931
H   46.034660   45.961472   89.962074
H   81.672966   14.075066   29.061344
H   40.454239   73.142235    0.685648
H    6.249719   61.588543   56.186680
H   32.987392   35.031151   93.009438
H   74.586334   93.723732   49.005474
H   19.251595   17.928221   73.670418
H   86.134079   29.350870   39.074268
H   37.408451   39.425690   62.486546
H   12.078986   83.468132   99.828430
H   55.330292   18.222763   41.888119
H   85.375038   52.046726   23.230183
H   75.151688   81.887199   78.104218
H   20.607731   34.423351    9.693401
H   78.613884   47.473343   45.220512
H   49.242207   15.552873   77.236694
H   84.358917   54.690525   18.034676
H   28.130220   17.795616   99.573997
H   39.854191   27.309483   76.296394
H    0.348216   67.216972   47.242016
H   63.955887   65.502983   90.573357
H   65.997017   66.499977   24.134388
H   22.394672   88.835724   41.979488
H   44.361851    0.268918   43.957470
H   15.059898   32.884773   42.993347
H   17.172337   42.522362   57.364159
H   95.264229   43.379677   60.327572
H   47.999409    5.210636   27.506630
H   34.971771   76.105278   41.778343
H   23.152761   96.202370    8.605947
H    8.689973   20.469330   48.083641
H   85.036217   38.992664    3.421147
H   70.106857   65.939095   49.817978
