100
TIME:    4.057, STEP:  4057
H   42.963531   49.973724   95.431717
H   88.431496   24.706217   33.912315
H   49.490860   65.780830   75.720695
H   82.157562   65.501823   17.784655
H   58.832870   97.943947   55.702393
H   65.113655   96.812843   80.524651
H   40.342808   35.285877    7.715688
H    1.014096   39.583698   35.693790
H   53.899132   96.229279   44.713627
H   63.973396   74.635872   66.559723
H   22.882767   29.484531   48.958340
H    0.994286   27.046885    4.147781
H   85.181625   16.255314   21.898270
H   54.201912   92.571053   65.980713
H   29.850239    7.639981   55.757366
H   38.401901   56.889030   96.274353
H   97.867226   50.308865   42.713066
H   87.833092   97.408577   58.893589
H    8.457493   48.550705   77.100113
H   83.215355   19.661283   92.552086
H   23.528580   52.330830   47.128418
H   51.328888   49.469711   73.787262
H   31.577232   61.626900   16.274269
H   42.102257   85.339020    5.764261
H   84.482941   64.420258   66.501686
H   28.053278    6.725515    8.908255
H   12.238817   73.833755   80.467018
H   90.224121   45.806747    0.872730
H   99.385895   17.174873   65.395638
H   56.556396   90.428673    5.908796
H   75.724876   85.854515   88.402016
H   21.918501   40.420311   23.687218
H   56.127911   71.652962   63.283554
H   49.519730    1.922978    0.837040
H   79.924805   52.242058   71.770355
H   25.304304    3.183733    6.682944
H   68.917313   55.959946   28.140921
H   96.309837   84.706078    8.733465
H   73.826569   93.023491   51.158638
H   81.069038   32.380264   57.231518
H   57.984406   95.390656   37.926861
H   67.001083   93.937790   93.403076
H   46.186153   87.828568   94.515465
H   20.291975   80.762451   77.406250
H    4.741343   71.821320    3.278770
H   25.746799   40.297871   99.640511
H   73.429977   45.471703   64.411049
H   56.456081   37.155746   19.602058
H   83.620163   96.449615   82.639221
H   10.964969   92.485252   99.913551
H   43.235096   77.966179   96.193176
H    2.295935   87.280075    7.726487
H   93.027855   45.532593   67.246498
H   82.741692   41.012772   10.840964
H   17.769577   14.133738   34.853298
H   98.642441    8.266394   54.516953
H   53.446918   72.483620   41.841972
H   23.963127   93.753761    9.055664
H   10.244345   10.186634    0.024596
H   91.299057   39.622959   48.219856
H   15.619108   89.903099   98.080940
H   54.923759   90.180099   11.786830
H   49.490673   30.441128   55.269798
H   21.625975   63.863579   16.991390
H   93.351295   36.817997   73.379738
H   52.117165   40.587257   86.065308
H   62.067856   88.623566   62.934307
H    0.120863   49.561722   60.150661
H   59.104156   58.276184    5.783670
H   12.581587   52.198891   93.190247
H   93.203651   19.361526   13.481037
H   39.448914   16.881424   53.657085
H   42.467896   17.631138   57.729324
H   40.900982   92.644325   62.100822
H   57.774189   34.422810    8.945827
H   21.566622   67.589684   22.945244
H   35.304062   74.913376   62.799152
H   22.585567   85.443504   38.493172
H   56.059151   41.602039   62.951073
H    0.562143   88.001015   71.407066
H   90.264542   71.253189   22.466150
H   45.726921   70.722855   47.533936
H   74.484352   74.976654   16.309185
H   29.265650   59.325386   92.873032
H   54.787292   95.116234   54.471741
H   57.922787   58.076736   23.513763
H   38.112587    8.375984   16.997084
H   21.259809   80.481102   53.551712
H   39.878769   68.284950   95.009773
H    7.644841   42.360443   69.243332
H   90.051727   92.498177   19.138224
H   78.473343    0.608989   10.830820
H   45.515007   49.248070   32.738567
H   39.352497   59.321068    0.361831
H   86.446739   86.328148    9.312966
H   29.013184   35.524117   57.899635
H   40.576477    0.503716    3.866920
H   21.758039   50.780609   91.117790
H   15.447075   54.338428    5.219841
H   91.207298   74.522560    6.915967
