100
TIME:    8.538, STEP:  8538
H   39.931633   39.045677   91.329239
H   64.677628   67.527237   16.452820
H   26.531298   88.162216   23.116920
H   82.909683   80.884392   72.166939
H   18.691294   57.115604   34.204102
H   95.615479   91.958244   24.292404
H    5.494275   37.864899   58.135883
H   48.816330   27.247545   24.262711
H   43.747536   65.398773   62.651920
H   41.556923   38.978031   42.017952
H    6.071060    9.787517   17.326483
H   29.969559   51.656353   85.185188
H   99.309616   45.192451   76.623764
H   32.329979   78.759377    6.984860
H   84.308540    7.376572   40.307991
H   58.228943   64.964256   24.312420
H   37.531929   46.692417   50.636177
H   83.642715   79.379967    3.558144
H   78.246552   36.533306   13.177615
H   62.484303   24.500189   97.639381
H   57.619698    6.231794   25.508619
H   80.926720   55.418304   92.188736
H   71.747597   25.186419   88.067520
H   25.754255   38.967499   72.968674
H   24.216232    9.053505   99.595009
H    7.349697   74.403244   87.418396
H   25.837301   87.562454   69.377487
H   12.130400   54.964680   48.994423
H   96.821068   23.726053   53.575890
H   28.377335   79.523788   62.135040
H   52.080830   87.674690   33.879692
H    4.851902   16.617275    8.858604
H   71.762955   43.801308   66.967422
H   38.853439   91.266022   12.059301
H   68.468452   13.223564   44.511868
H   14.831369   54.164291   92.584297
H   98.704674   91.854256   81.226402
H   11.101606    2.700690   24.944382
H   84.680351   95.390099   16.916725
H   59.008476   12.884063    9.786241
H   51.739456   49.140419   43.496059
H   80.677704   75.084930   15.841249
H   84.765228   14.704716   18.182384
H   34.163822   55.955978   15.535464
H   16.047882   95.030418   86.730644
H   67.913780   25.761330   17.847868
H    8.443231   89.163155    7.423141
H   56.708736   83.308624   96.860634
H   14.605942   25.333160    3.888639
H    4.996435   60.687260   86.555717
H   42.915333   45.354958   43.431366
H   20.075644   71.476593   13.569648
H   85.971321   71.514954    6.998335
H   78.970093   67.902969    8.575091
H   60.986702    6.833936   72.964111
H    4.229828    3.552576    1.973129
H   37.523743   43.186195   68.022285
H   90.299011   70.578438   93.634911
H   63.650173   99.528709   56.024445
H   95.599586   84.047226   20.769554
H   98.283737   81.514282   48.705700
H   95.887596   48.471573    9.036533
H   53.706272   24.665392   47.994171
H   29.328575   88.273132   95.331009
H   71.212540   78.928558   90.675369
H   76.846138   17.823906   51.017551
H    2.548337   43.542477   79.276474
H   90.587570    5.834239   74.368378
H   82.435059   36.300102   24.743942
H    3.427151   77.485245   83.734650
H   50.909809   14.474620   59.734810
H   70.182922   68.104881   81.877609
H   50.297836   95.987358   42.836407
H   42.252987    9.050285   95.855202
H   73.755341   40.886967   48.658497
H   27.500452   54.779533   21.430628
H   42.215652   86.814697   42.165314
H   33.107822   92.446007   85.967346
H   70.940041   28.439922   12.940321
H   80.814049   43.914482   85.364952
H   77.960793   17.611887   90.287537
H   81.980576   99.840683   72.714211
H   57.922874   49.903721   43.059444
H   37.550133   42.774635   83.602837
H   36.601120   14.818182   20.090000
H   54.791912   22.668037   34.687958
H   37.388569   82.570000   30.668068
H   93.343559   21.854557    7.052159
H   32.873783   18.790174   58.360970
H   11.464576   58.001587   29.430414
H   73.432823   34.457897   13.769065
H   10.024439   37.618225   96.212212
H   32.755650   83.699272   79.261230
H   72.429550   31.163441    2.502988
H    8.973198   84.947556   12.280928
H   99.125351   58.575500   26.450325
H   84.896263   57.657005   46.160667
H   21.796999    8.920873    7.479860
H    1.982550   73.671349   29.890453
H   69.538162   59.532322   75.247971
