100
TIME:    7.339, STEP:  7339
H   21.015589   48.999275   92.426956
H   97.792099    2.552399   40.852802
H    5.921540    1.901512   37.192257
H   82.708435   30.284477   37.887112
H   29.435202   61.010555   66.714828
H   14.208766   93.257210    5.551548
H   68.331665   56.903202   64.372513
H   43.055367   23.518940   34.351288
H   73.221245   80.678406   38.122921
H   74.305489   21.762163   95.069283
H   17.599121   61.543156   32.820168
H   75.732880   91.556931   70.531090
H   75.766014   17.765743   95.777229
H   91.698189   82.455025   15.740742
H   69.745491   14.477165   97.970978
H    6.437537   69.833191   23.839956
H   33.948463   67.387375   41.486477
H   58.008877   37.723160   45.118454
H   59.569233   86.233093   50.007809
H   94.793350   49.959431   16.005808
H   28.770050   25.596573   58.047703
H   65.977417   53.826614   94.294662
H   87.755974   34.934608   22.373106
H   37.158905   24.623995   62.016884
H   67.099556    4.139809   90.740089
H   13.003307    9.748463    0.249609
H   29.228392   37.403336   45.586536
H   13.298554   98.999428    9.359910
H   70.750282   14.943647   10.254015
H   82.403351    9.199450   66.818047
H    4.890222   80.157639   28.740685
H   29.146084   49.740894   19.856041
H   87.306282   31.525667   58.952034
H   88.191612    1.147239   62.570786
H   98.308067    4.004758   71.563385
H   10.604584   60.250839   96.353127
H   83.704391   35.766235   86.749908
H   60.656097   24.644535   40.333817
H   35.290920   21.512022   33.108307
H   71.940971   25.130457   15.451356
H   33.682373    8.003461   15.248198
H   81.722939   70.383041   54.627918
H   74.446686    7.512381   31.577404
H   10.724501   35.827354   98.304436
H   20.052269   42.331966   84.127876
H   83.391594    2.896565   12.976748
H   99.070602   23.958183   95.910957
H   56.635555   70.959305   22.673244
H   79.555733   24.634220   51.719559
H   79.823486   42.437710   70.390297
H   42.997662   61.110504   30.789761
H   61.804043   82.734253   92.276978
H   61.106960   64.562744   76.631844
H    6.740112   87.460632   55.665848
H   56.452957    1.759247   62.772533
H    2.736475    4.813807   42.789917
H   61.511181   77.782585   53.987450
H   79.578781   83.809196   24.519873
H   69.086479   48.866322   48.070427
H   74.719765   91.887589   54.871971
H   22.650446   37.274178   42.189377
H   38.442482   59.631699   63.289566
H   72.306206    6.482520   30.213196
H   46.996151   81.741714   27.885311
H   23.619541   74.691254   79.017921
H   50.501007   77.429955   80.122803
H   98.746307    2.091806   21.389341
H   73.410774   37.263176   17.049240
H   22.676323   22.452591   99.942352
H   79.076042   17.264254   86.277695
H   88.985451   96.056198   74.114906
H   68.917793    7.915870   93.992378
H   28.475073   55.294476   73.578918
H   68.645546   84.933899   67.095123
H   15.998384   39.121471   57.749592
H   99.153221   77.934593    2.108461
H   33.321003   90.591133   20.899427
H   76.779892   70.842125   19.744516
H   13.445888   31.961765   99.559792
H   39.613113    9.229119   88.659859
H   54.487938    5.207681   18.624893
H   92.009529   92.065186   73.022820
H   82.083565   29.852087   28.872368
H   55.060062   40.173580   93.113335
H   94.981384   89.822899   36.318550
H   82.384262   78.628922   51.425690
H   57.310001   69.747383   73.495171
H   74.060326   17.799433   19.483894
H    7.987779   85.548775   68.167244
H   17.472303    7.328159   86.568344
H   24.364857   69.715202   88.448044
H   21.310579   47.442047   73.361397
H   55.897511   47.726597   86.540718
H   56.551651   58.421471   21.656260
H   29.706333   92.346268   84.729248
H    0.092866    5.923317   88.379875
H   80.067192   88.850021   15.116111
H   24.111353   49.592289   31.551886
H   59.099998   68.493782   30.319141
H   95.065437   90.303665   90.750900
