100
TIME:    5.847, STEP:  5847
H   21.913572   85.822533   93.792923
H   38.994545   21.703665   46.778042
H   80.266434   94.561050   54.710781
H   82.458008   91.753143   19.668522
H   42.800003   41.420258    7.169651
H   37.350300   94.873604   57.795048
H   46.528385   56.156178   47.696095
H   60.323624   94.442215   71.342445
H    9.897514   24.128296   32.038704
H   15.058920    0.337651   36.651432
H   56.381332    1.509477   76.536354
H   32.677429   16.770252   76.733376
H   70.957718    8.010441   44.034355
H   65.572350   87.053780    2.198395
H   51.619560   47.749680   69.713867
H   66.428635    0.328900   47.689178
H   53.926186   68.703209    5.663824
H   26.102171   10.323467   96.838905
H   36.336414   23.641710   71.403549
H   34.988403   81.644814   14.423517
H   17.307442   74.130493   98.546944
H   22.937927   51.845963   21.352188
H    7.676988   47.068947   65.060852
H   75.787941    6.775362   72.825012
H   20.461956   22.463226   79.721291
H   19.892397   53.808540   40.591972
H   57.886375   99.423111   15.979210
H   39.188900   29.357887   60.045975
H   38.308571   79.577698   80.781677
H   25.192791   46.126610   48.208054
H   46.172287   46.367046   46.782906
H   34.940281   90.966385   57.977974
H   82.212273   40.687584   24.540892
H   25.151627   37.879997   25.425867
H   35.431549   16.931139   80.769455
H   80.907486   43.391136    1.043462
H   40.602364   90.404907   69.186073
H   22.325985   51.952488   35.047924
H   98.267181   54.020195   77.694695
H   12.471746   64.807686   98.063866
H   35.650116   56.805672   80.098488
H    7.460679   64.532150   78.458397
H   61.604473   98.562668   23.809345
H    5.993875   10.784628   52.424080
H   49.471333    1.200759   56.454082
H    2.650807   74.439407    6.915270
H   87.414352   42.818192   81.591072
H   56.551678   55.592178   30.357122
H   35.943184   48.200676   11.234097
H   48.507008   19.726431   74.716599
H   43.100109    5.153080   15.063899
H   89.286247   21.181206   90.216805
H   30.156429   55.911621   63.285908
H   41.287689   11.801761   89.829002
H   75.247978   71.008820   50.080425
H    0.878179    6.383246   93.581116
H   66.924904   20.834297   12.085882
H   90.676178   24.710817   62.950180
H   51.416458   85.818855   62.607063
H   73.176270   77.208405   97.308006
H   28.534233    6.660082   58.516735
H   91.396461   73.519028   30.795868
H   71.014290    8.293980   32.524109
H   44.542931   73.614212   68.396378
H   64.402420   93.853775   40.075016
H   42.155418   51.601341   91.903603
H   18.452785   50.507069   49.355789
H   76.473412   51.933750   45.723011
H   48.316822   29.658195   93.518402
H   48.843559   42.229538   89.421021
H   36.364815   97.570740   92.009071
H   91.855423   57.474442   84.712082
H   25.756302   29.089745   11.829437
H    1.496562   79.361839   55.744438
H   44.078098   36.976597   44.640640
H   63.888474   82.311089    2.501180
H   97.824303   19.766611   94.455193
H    6.683024   68.400612   37.347992
H   41.897228   36.344242   82.917763
H   12.782776   90.505501   17.196758
H   25.288774   89.771561   29.450071
H   80.045197   82.389450   97.839012
H   87.710426    4.901516   86.782227
H   52.413277   12.499353   29.383999
H   67.628761   83.151939   80.951370
H   16.720776   23.823391   47.816696
H   57.662636   78.228249    2.350968
H   50.064842   37.190678   34.953468
H   77.024765   68.620644   80.369881
H   49.385761   68.716110   33.233910
H   63.305992   89.152817   56.939739
H   10.917688   35.229187   44.934158
H   60.257431    2.957053   71.162064
H   12.357906   67.903877   21.053148
H   55.500847   25.990864   50.443485
H   76.859802   64.839935   65.443756
H   98.495354    3.228158    0.922717
H   26.991266   75.767090   61.500793
H   30.175323   62.054417   55.290428
H    2.391747   28.591728   34.480663
