100
TIME:    2.716, STEP:  2716
H   33.649811   72.950310   96.659439
H   25.719826   52.002907   49.324421
H   26.440374   69.304001   91.456001
H   81.932480   20.751238   91.289734
H   70.844086   90.456894   92.063431
H   85.903084   98.265648   47.720783
H   10.625437   44.735550    2.847616
H    6.414055   23.570719   58.820774
H   86.863472   25.161179   29.124111
H    0.620813   55.381096   14.044406
H   47.619324   75.526749   78.130157
H   52.180038   59.829697   99.601738
H   70.496513   97.385437   55.180054
H   20.600609   96.704384   63.930149
H   13.536880   27.422956   20.216200
H   92.319366   74.177765    7.589473
H    5.702545   61.611572   20.636545
H   59.184525   62.621559    5.385056
H   87.568291   92.291916    6.453008
H   19.345825   48.136425    1.250574
H    3.105403   85.830902   83.525635
H   22.765915   47.689514   87.985809
H   49.481514   72.533165   54.642685
H   66.695679   69.255859    5.359202
H   32.443352   70.768921   56.600723
H   34.205402   46.680325   34.601067
H   27.874741   29.575644   53.862476
H    3.374243   83.213417   56.550091
H   70.227493   95.509041   28.784830
H    5.137433   23.619308   99.303276
H   22.946203   65.603546   94.497673
H   37.246986   77.470543   47.830330
H   61.670124   69.766853   42.475685
H   92.858177   24.817459   57.330032
H   13.258725   53.611389   90.114372
H    8.699780   97.840263   11.303529
H   40.298737    5.069315   22.475340
H   51.732666    9.243526   14.102705
H   30.429474   22.239382   81.111832
H    7.376951   57.921173   51.724064
H   49.631512   49.374790    6.333660
H   87.522545   33.753799   30.400599
H   34.635334   79.786987   97.653526
H    5.924630   58.292534   46.289795
H   21.063074   24.732098   88.526100
H   43.047451   14.720325   94.197609
H   62.952396   72.542877   51.530525
H   56.384464   23.347078   36.628593
H   44.420013    7.511084   36.131554
H   82.846153   72.084602   93.704620
H   43.337406    7.430998   82.053909
H   37.124531   11.714310   95.760704
H   65.219948   37.757019   45.128860
H   13.798519   62.896919   51.665680
H   24.539337   96.603851   23.451735
H   96.964554    9.677565    0.167758
H   68.433113   11.178002   14.301762
H   23.817474   20.394932   43.598465
H    4.482818   53.526623    2.974016
H   79.790421   36.549030   86.361092
H   31.028513   52.264202    2.635861
H    2.518185    2.662474   72.465393
H   58.458370   21.942530   47.230148
H   29.541830   56.568863   53.403584
H   40.124950   43.921848   48.497353
H   34.496925    7.252464    6.776249
H   69.658699   42.261387   98.190018
H   92.752937   72.867981   96.043106
H   92.266594   54.631889   89.889412
H   85.410461   84.750069   96.014008
H   35.788033   10.602780   29.569313
H   50.020035   61.386353   55.475403
H   29.903837   83.961906   92.107414
H   70.421196   77.506302   41.788597
H   93.121239   32.509609    7.288838
H   89.865013   81.643303   13.177650
H   13.549799   91.141983   39.083652
H   59.582943   73.129021   64.436203
H   91.755371   45.540981   47.983093
H   66.327583   61.036358   86.935440
H   64.032211   57.379925   42.317310
H   45.108902   61.965103   59.667336
H   89.641495   52.591187   88.585541
H   37.006947   44.573212   15.353180
H   20.082714   78.997467   84.466759
H   88.781555    8.816792   30.390621
H   48.550224    5.877609   53.052704
H   99.677399   87.845001   67.499153
H   12.047096   42.949242    5.979465
H   26.207333   97.530106   21.308750
H   35.172546   20.088394   90.818680
H   79.247574   99.765923   85.275139
H   59.547733    9.014795   29.032791
H    9.738951   77.978935    9.944989
H    9.631939    6.446161   78.497917
H   18.252090   88.479866   27.164215
H   47.018814   23.546017   80.989799
H   16.836920   39.362793   12.577991
H   79.329552   48.557903   17.544106
H    7.914078    8.940519   36.096344
