100
TIME:    3.330, STEP:  3330
H   92.128326   16.643242   96.097305
H    8.639822   85.292282   88.055435
H   36.994438   13.477656   84.251320
H   82.035538   95.453300   57.635769
H   65.344543   39.671688   75.414902
H   76.384285   97.600456    8.526665
H   78.444298   86.195091   50.863274
H   58.154861   76.688797    2.443722
H   71.770180   66.127457   90.475166
H   83.841209   64.197227   38.089676
H   90.506546    0.232522   18.987364
H   28.743744   90.606522   55.895836
H   31.441456   60.237762   94.154320
H   90.199150   94.811867   10.653881
H   21.006233   72.578354   90.702065
H   67.632324   20.475250   56.622414
H   56.328377    2.225266   76.531387
H   72.302696   32.762886   84.098328
H   97.133934   18.050119   38.799152
H    2.805038   35.099606   43.054497
H   66.669800   24.705208   66.858368
H   81.630692   48.504608   35.697998
H   41.283730   67.539543   37.076004
H    9.648468   76.619812   59.759884
H   10.484660   22.073433   61.132607
H   31.389540   28.387091   77.049721
H   74.929855    4.051970   66.045937
H   51.565601   11.872833   76.844841
H   83.578171   51.215469   99.762184
H   28.679668    8.422374   48.113770
H   47.112392   20.663340   45.919945
H   76.015480   60.504440   90.989296
H    4.917599   24.843369   97.789650
H   18.801636   68.548134   31.462559
H   97.995529    7.197654   27.502205
H   62.085598   46.074337    9.192403
H   99.189735   82.583481   70.856316
H   26.357010   98.006752   57.429218
H    4.510862    8.862940   21.610380
H   49.544247    0.439282    0.031288
H    7.670251   70.442184   20.799055
H   32.339745   61.312408   59.247299
H   39.924076   83.468964   42.002865
H   66.716064   68.582184    6.324058
H   67.801826    0.508100   41.068295
H   35.126049   26.431446   96.689735
H   67.750290    5.933963   57.428246
H   56.417255   29.668741   74.619469
H   62.366135   56.658020   11.638312
H   95.719017   81.425392   50.759045
H   43.290562   48.153717   88.527817
H   66.964462   54.740723   55.454716
H   77.952278   41.317200    9.467636
H   99.581078   52.876884   78.760529
H   75.653580   50.417137   28.670366
H   97.732803    9.031820   79.265747
H    7.360208   93.460747   72.698128
H   78.097649   62.410248   27.783142
H   52.905960   79.469101   55.838139
H   39.272804   83.742889   68.897469
H   69.759590   23.712387   54.761906
H   80.726402   96.946915   44.683357
H    0.133511   80.049736    5.122391
H   71.705559   59.908875   36.731632
H   64.498039   94.882088    5.677224
H   96.778145   76.728706   43.079391
H   20.396488   63.486622   27.835283
H   50.339943    7.983036   25.395857
H   22.868416   10.513756   51.381710
H   97.852356   15.631584   94.721100
H   16.289471   68.826546   22.203018
H   99.393967   41.009003    0.428275
H   89.868881   53.589550   76.367668
H   56.908382   38.650429    5.297533
H   22.724680   33.385601   53.834751
H    4.378593   20.994032   71.861847
H   69.298195   37.924355   49.942204
H   88.429779   32.979679   98.342239
H   21.198957   43.737469   54.836441
H   36.215950   27.594391   34.038651
H   76.043137   63.732037   79.015274
H   91.177689   65.974991    8.324701
H   28.487913   62.840759   47.065891
H   79.248306   97.113983   59.271881
H   90.185501   40.591503   24.946159
H   74.653259   31.370068   73.028473
H   89.557884   61.234795   82.330505
H    9.559320   38.686401   61.111687
H   24.790775    8.763483    0.956010
H   71.922485   72.271561   43.256531
H   60.299927   53.241077    3.785312
H   24.679033   45.940117   96.976891
H   98.914185   27.433409   76.518456
H   69.085701   15.221348   51.342705
H   99.015266   51.449184   92.607475
H   68.965927   64.233162   95.449913
H   98.282990   58.782436   45.678429
H   19.090139   44.590637    2.753532
H   50.079857   51.204617   66.115440
H   46.049335   93.181221   76.950668
