100
TIME:    8.820, STEP:  8820
H   20.861462   13.185501   91.071060
H   56.889236   82.807114   34.233936
H   31.378603    8.450336   19.806854
H   82.957016   69.266350   56.709625
H   16.164370   79.719147   26.558475
H   91.243652   91.652733   52.220589
H   90.714043   56.907730   80.188652
H   26.651688   51.643284   98.370003
H   36.815437   38.285706   44.899982
H   33.854591   43.027134   53.059395
H   79.840118   21.133690   90.162407
H   19.205658   65.791634   65.111794
H   81.327469   28.124687   48.599648
H   18.367865   77.890175   28.445965
H   87.733711   82.186958   26.747154
H   46.890594   40.299583    0.903410
H   14.855205   65.343834   76.307747
H   89.673172   65.657768   93.782303
H   82.639893   48.364346   28.033649
H   54.887394   18.511518   16.839167
H   40.885414   78.158722   17.854696
H    7.962334   55.792664   68.173813
H   67.982491   22.894007   79.999435
H   99.552338   42.341034   52.024845
H   14.131026   86.690048    1.676839
H    6.019539   66.089890   60.881672
H    1.520082   75.841141   74.971359
H   88.335754   68.127487   58.316826
H    2.953000   49.311214   40.245262
H   39.190361   72.544357   84.553558
H   63.180363   12.962540   11.568748
H   22.657337    8.826237   82.752510
H   91.625504   23.168987   92.372208
H   50.768387   65.422333    0.179709
H   61.450294   91.872261   61.669994
H   39.344685   76.252441   91.697884
H   25.752094   81.527107    3.446916
H   99.446342   97.540504   44.843506
H   72.778313   89.245445   89.589157
H   32.448341   86.484505   31.973475
H   32.466415   58.815666   50.139858
H   56.912354   76.190796   30.237938
H   87.192108   16.396450   38.550533
H   16.158009   60.691406   43.106800
H   91.586243   83.907219   10.862382
H   64.273460   31.138977   18.993536
H   10.647969    4.499315   10.131271
H   56.725948   86.213135   14.308802
H   22.848297    1.978687   92.640137
H   10.915720   64.979973   66.839470
H   42.895969   18.129463   46.404724
H   33.781567   45.308643   95.057747
H   91.819069   73.150085   90.620743
H   72.438171   63.302757   21.018230
H   38.533760   31.547216   75.360870
H    4.581059    3.255939   92.373169
H   55.400467   35.049263   94.842751
H   69.300476   43.947304   86.371483
H   85.892265   11.444863   34.374008
H   76.989204    5.721843   12.748802
H   16.072744   68.398804   26.719631
H   85.878868   45.846756   96.277092
H   72.851379    5.421693   28.656586
H   48.693981   89.809296   87.676010
H   82.404587   56.406040   16.936888
H   59.522346    3.805270   67.691597
H   79.923172   53.290874   92.891098
H   71.107986   21.962841   87.849609
H   96.488586   16.037376    7.056822
H    9.154616   91.650650   83.136536
H   41.953159   95.286507   56.352669
H   46.961327   58.741600    2.548945
H   31.911209   82.037102   35.605251
H   36.045940   91.202187   79.099403
H   87.339844   41.302204   70.039993
H   34.167915   72.853142    2.455885
H   67.826981   62.408062   47.167526
H   46.354542   74.007744    1.543942
H   84.464302   27.611599   16.087427
H   66.984276   28.552607   61.070335
H   83.481514   20.529306    7.142501
H    3.142427    1.671165   49.122337
H   75.759453   54.619785   69.916008
H   56.950111   66.905739   57.845722
H   22.870316   97.177353   92.753662
H   48.300869   33.026489   54.270813
H   56.222706   62.066307   44.114876
H   97.878899   99.288979    4.128183
H   38.725834    3.089247   56.054573
H   86.532394   46.398605   39.510414
H   84.973412   49.683987   19.724388
H   30.889582   58.827606    1.586044
H   50.832462   92.158928    1.068724
H   99.684616   48.272083   21.517145
H    4.097063   59.688702   18.760447
H   22.417465   47.439392   11.884590
H   62.512169   73.840508   29.942604
H   21.252672   22.874355    1.818216
H   88.548698   74.889091    6.269253
H   87.055588   52.296864   48.082005
