100
TIME:    3.708, STEP:  3708
H   66.565338   81.978882   95.751236
H   98.124748    5.785859   11.899277
H   43.491890   40.671959   79.815865
H   82.098984   79.880180   36.914867
H   61.958832   69.970055   65.165482
H   70.524178   97.190941   45.961952
H   58.632610   11.718805   80.423363
H   28.444809    9.391665   67.738579
H   62.478218   29.784409   66.682899
H   73.511040   69.624748   52.892792
H   55.345901   15.441696   82.575874
H   14.315536    9.553463   28.989107
H    7.397096   37.368347   56.583298
H   71.482567   93.646767   39.420895
H   25.604630   38.813522   72.533424
H   52.434113   87.413750   25.245150
H   25.931953   27.226276   10.942221
H   80.377647   14.380773   70.993835
H    3.021980   33.908745   58.712559
H   92.619865   27.072794   68.790520
H   44.238739   87.074097   56.599495
H   17.869919   49.006409    3.507830
H   36.236885   64.465294   26.260571
H   74.528114   81.153320   31.685009
H   96.965485   92.095932   63.924232
H   29.654867   17.123976   41.619812
H   42.333973   88.339920   73.544106
H   19.671869   29.516602   89.337944
H   91.797318   85.510941   81.893471
H   43.173874   99.066338   78.164124
H   61.990490   54.558430   16.013786
H   99.882729   50.061798   55.995918
H   31.543608   97.187859   31.842878
H   34.773926   33.906593   15.539043
H   88.599747   78.623680   50.518700
H   94.956413   75.768829    7.887465
H   35.444641   68.740707    0.641337
H   10.734620   91.091133   84.104683
H   88.556396    0.627932   84.979729
H   13.941631   65.053665   29.771627
H   81.836502   83.414017   29.704573
H   98.367203   78.276031   77.006424
H   43.180012   85.735718   69.305412
H   42.577728   74.915253   43.282379
H   35.014309   85.592590   73.414246
H   30.249355   33.641224   98.223976
H   70.703415   26.491886   61.059090
H   56.437443   33.561157   98.007988
H   73.416855   25.353165   96.559601
H    3.645320   87.175911   24.322231
H   43.261723   11.659901   92.513382
H   85.334976   19.664219   30.638660
H   85.790749   43.508972   87.514656
H   90.825523   46.708199   95.441071
H   45.557083   83.546326   31.884485
H   98.205765    8.633841   66.397736
H   31.322886   82.553795    8.649120
H   49.950676   26.712982   18.045616
H   82.718758   95.440201   26.817600
H   14.329808   12.796675   58.146248
H   93.603767    6.133912   25.291218
H   67.310448   93.428543   27.578880
H   25.796022   54.256035   79.201775
H   97.660759   61.965103   26.467793
H   79.500145   64.693306   40.879322
H   73.556892   57.937141   65.429703
H   90.068375   76.556396   46.085003
H   24.229012   29.602274   43.466442
H   41.709007   83.353104   27.673077
H    5.510897   34.643982   93.925140
H    4.285894   43.107826   17.668068
H   68.224655   28.463989   28.103752
H   65.222977   34.893154   66.677727
H   48.585415   14.729427   82.837608
H   40.948849   33.924892   82.489296
H   13.315259   45.221115   46.427746
H    3.616909    5.161423   56.627110
H    6.188914    8.263063   19.218187
H   39.324341   42.627163   59.055603
H   17.678169    7.007591    1.473788
H   83.437485   67.642624    1.607774
H   19.539673   68.443619   76.716675
H   52.404186   69.150757   83.068634
H    5.255125   29.460892   24.748581
H   71.780380   16.946316   88.303482
H   65.955383   45.256035   99.277832
H   14.803671   33.751122    0.354959
H   15.642931    8.422819   57.180916
H   32.636337   87.717033   97.864143
H   38.501522   56.720161   56.767654
H   75.769226   73.651878   11.767983
H   52.649712   74.365776    4.180355
H   23.143875   38.775833    5.749829
H    5.619455   38.150269   76.829277
H   92.480324   17.589184    1.293704
H    0.187151   49.306038   75.925835
H   68.278778   80.475212   23.938971
H   20.477301   47.809082   96.704048
H   32.072716   52.834026   34.453171
H   69.527931   83.479744   40.536545
