100
TIME:    8.980, STEP:  8980
H   10.041591   98.513008   90.924576
H   52.470291   91.476547   44.323048
H   34.128849   19.960957   17.928802
H   82.983871   62.674553   47.938873
H   14.730654   92.543854   22.220707
H   88.763184   91.479393   68.066223
H   82.327812   67.711754   92.700859
H   14.076004   65.484970   83.680061
H   32.882332   22.902042   34.827961
H   29.484121   45.324497   59.324043
H   64.957306   27.571068   74.749809
H   13.098480   73.811653   53.722633
H   71.124832   18.440849   32.699989
H   10.445897   77.397011   40.622478
H   89.677071   67.894966   19.053062
H   40.457489   26.305443   87.622131
H    1.988748   75.927330   90.873177
H   93.096024   57.872124   88.235428
H   85.132568   55.076992   36.462605
H   50.577091   15.113691   27.732721
H   31.390785   62.230850   13.512045
H   23.301691   56.005066   54.548325
H   65.846260   21.593348   75.421799
H   84.686615   44.255096   40.141300
H    8.408675   74.002060    2.857935
H    5.264839   61.373093   45.824299
H   87.723625   69.190750   78.145187
H   74.834778   75.595749   63.606133
H    6.432179   63.827816   32.681786
H   45.325615   68.584396   97.273285
H   69.476906   27.310009   98.910080
H   32.759876    4.405890   67.940498
H    2.895268   11.463055    6.786274
H   57.528641   50.759247   93.439003
H   57.468361   79.758003   71.404175
H   53.253376   88.784180   91.194954
H   41.097801   75.667732   16.054037
H   92.832573   94.613258   56.133789
H   66.025383   85.759117   74.083786
H   17.378168   71.506477   44.562584
H   21.531942   64.305237   53.909389
H   43.428467   76.818237   38.405796
H   88.569061   17.356533   50.106930
H    5.941975   63.378174   58.750111
H   77.706848   77.596184   24.554514
H   62.209091   34.190563   19.643560
H   11.898885   13.201097   11.667831
H   56.735714   87.861084   24.208652
H   27.524811   88.726906   86.258301
H   14.274179   67.416496   55.652035
H   42.884983    2.682076   48.091736
H   41.557446   30.461296   84.554817
H   95.136940   74.077820   81.328751
H   68.732117   60.691673   28.078167
H   25.794205   45.569412   76.720734
H    4.780338    3.087635   86.926392
H   65.543472   30.432564   10.060220
H   57.386414   28.837313   82.250389
H   98.511894   18.205729   22.090567
H   66.430122   18.020397    8.198021
H   26.166128   60.957897   14.245222
H   80.200157   44.357498   89.038322
H   83.713196   94.503563   17.684906
H   59.681530   90.680878   83.332748
H   88.754684   43.626499   31.837400
H   49.693245   95.851311   77.152046
H   67.086258   58.821880    0.615747
H   60.055740   31.113842   95.498535
H    4.462785    4.540794   97.021973
H   12.404128   99.687759   82.797180
H   36.871372   84.400276   54.433723
H   33.786278   53.429100   14.276607
H   21.479080   74.122063   31.502468
H   32.524212   81.075233   69.592567
H   95.047363   41.537800   82.171341
H   37.950874   83.107048   91.689468
H   82.358231   48.559185   50.005661
H   53.870411   63.546318   10.380721
H   92.137642   27.141628   17.873316
H   59.137596   19.836176   47.286156
H   86.613838   22.184580   16.705772
H   15.148409    2.709831   35.737328
H   85.879082   57.295567   85.152824
H   67.957634   80.597145   43.232685
H   15.079788   87.167587   77.243408
H   44.618008   38.904175   65.381653
H   66.908745   50.433006   51.744270
H    0.452106   86.486244    2.469318
H   42.046146   94.180687   54.745979
H   72.386887   39.815353   45.229408
H   91.521263   58.322903   23.103294
H   42.727962   70.861298    4.634232
H   61.088810   96.958733   13.441768
H   15.147810   57.979115   32.305126
H    1.330483   45.356426   22.436594
H   35.632797   41.121033    3.620125
H   49.811974   83.022636   20.740334
H   20.943834   30.791225   98.605675
H   80.926628   75.580009   92.867821
H   96.994553   48.191639   32.668186
