100
TIME:    3.677, STEP:  3677
H   68.661774   84.821747   95.779617
H   98.987068    4.105062    9.943861
H   42.959030   38.441658   80.179619
H   82.093781   81.157341   38.614201
H   62.236496   67.485268   66.006042
H   71.004768   97.224525   42.891800
H   60.257206    9.625504   77.999123
H   30.881348    6.709819   70.584755
H   63.240257   32.764923   68.634117
H   74.358223   69.179634   51.678780
H   58.229446   14.194395   85.562065
H   15.498802    7.999643   31.195639
H    9.368958   39.243881   59.664330
H   73.017525   93.742317   37.061695
H   25.227512   41.582596   74.023445
H   53.680527   90.125114   27.818510
H   28.424782   25.175961    8.120169
H   79.715416   15.888354   72.068542
H    2.539172   32.608170   57.079449
H   93.455223   27.731123   66.679893
H   46.078323   90.160095   57.440765
H   14.897919   48.965256    6.147741
H   36.650780   64.717415   27.147606
H   77.408348   80.781525   33.987446
H   98.074249   94.554230   63.695290
H   29.797129   18.047670   44.525352
H   45.007259   89.628433   72.929176
H   22.287565   28.069626   88.313377
H   91.123260   82.698349   83.358894
H   41.985168   99.833580   75.699677
H   60.770329   51.778713   18.466408
H   97.925362   50.918205   58.865746
H   29.360018   99.456001   29.050154
H   33.464127   36.747566   16.844940
H   89.370300   80.967033   48.631104
H   92.260658   73.333710    7.994456
H   32.471458   69.875961   98.198662
H   12.015861   91.658287   81.916954
H   89.864777    1.303289   87.983894
H   16.861481   67.955658   27.332605
H   83.955170   82.350189   28.974226
H    1.153314   76.884872   75.549988
H   42.912991   85.549820   67.066124
H   44.557327   74.395874   40.251488
H   37.703205   86.815826   70.761536
H   30.649296   33.049946   98.098152
H   70.461227   24.805916   60.761322
H   56.435787   33.241867   96.089882
H   72.510544   27.920494   97.796082
H    2.995151   86.704308   26.490330
H   43.264088   14.652832   92.186523
H   83.828400   22.540787   32.673840
H   85.147911   43.329224   89.314980
H   91.543571   47.214096   94.073090
H   48.025314   80.829285   31.620893
H   98.166977    8.666479   67.453049
H   29.357714   83.448280    5.700713
H   52.259026   29.640636   18.844196
H   80.273705   94.130402   29.197495
H   16.375443   10.413824   59.027962
H   91.648293    7.575507   27.708126
H   68.410698   93.717087   28.981628
H   23.691427   56.371391   81.327538
H   95.532158   61.796471   27.309536
H   78.269814   67.169106   37.992466
H   75.461281   59.478249   63.596741
H   92.555527   75.484528   44.588360
H   26.370384   27.829268   41.984463
H   40.163879   85.580566   29.617435
H    4.882841   33.084663   93.990417
H    5.270313   45.217033   18.039982
H   70.780869   29.492813   25.834072
H   67.244202   36.426456   67.472404
H   49.267986   16.691170   84.679558
H   39.454334   33.880665   80.139320
H   12.582370   43.234184   48.513538
H    0.802289    7.848309   56.078876
H    4.732478   10.290083   17.506083
H   37.837868   42.718220   58.709587
H   19.198463    8.695927    4.144431
H   82.831070   67.321915   99.755005
H   17.213585   68.241165   79.308838
H   50.442799   68.633270   80.116028
H    3.122385   26.808064   27.579857
H   73.289795   18.885471   91.308594
H   66.668701   44.117233   97.125107
H   12.733252   36.005074   98.876755
H   15.144011   10.904709   57.503281
H   31.993027   89.443092   98.117683
H   41.242451   57.995667   55.659599
H   74.500580   71.977852   11.113320
H   50.355789   72.034721    3.589628
H   21.156826   37.845634    3.352526
H    2.623131   36.269768   74.738991
H   93.016258   20.366062    0.581393
H   97.626678   50.530220   77.527016
H   70.739441   78.696175   25.721910
H   20.363539   47.545135   97.200249
H   33.549492   52.700397   37.049828
H   67.602257   84.275368   43.522972
