100
TIME:    4.169, STEP:  4169
H   35.389313   39.702728   95.329178
H   85.338234   30.775675   40.974693
H   51.416031   73.838692   74.406487
H   82.176361   60.887566   11.645404
H   57.829697    6.921237   52.665527
H   63.377018   96.691505   91.615959
H   34.473301   42.848988   16.474237
H   92.211113   49.272785   25.409977
H   51.145958   85.460968   37.663212
H   60.912605   76.244026   70.944977
H   12.464798   33.991123   38.170376
H   96.719917   32.660896   96.175560
H   78.034653    9.482182   10.769363
H   48.656258   92.225838   74.503418
H   31.212727   97.635834   50.373211
H   33.898727   47.093132   86.977478
H   88.860878   57.716457   52.908867
H   90.225670   91.962044   55.009922
H   10.201939   53.249557   83.001236
H   80.197289   17.282804    0.177573
H   16.882339   41.180561   44.088989
H   62.066437   49.618393   64.249420
H   30.081871   60.716011   13.069692
H   31.696251   86.682281   97.446136
H   80.477081   55.537849   67.328835
H   27.541666    3.407392   98.385094
H    2.580911   69.178482   82.688698
H   80.773438   51.034531    4.575032
H    1.821321   27.336067   60.101204
H   60.851074   87.656700   14.812202
H   80.132347   95.898216   79.540932
H   28.990278   37.326195   13.318810
H   64.017433   63.458382   73.373398
H   54.251907   91.658844   96.118599
H   77.140869   43.775749   78.590912
H   35.041325   11.963161    6.321712
H   79.659988   51.858383   36.966114
H   91.680199   82.657005   16.636860
H   69.099518   90.583061   40.304878
H   70.519478   21.895203   66.043701
H   50.329865   99.234161   40.565533
H   56.935165   98.963913   98.665039
H   47.150875   88.500198    2.605627
H   13.140303   82.638916   88.357422
H   95.025978   67.401886   12.863181
H   24.301853   42.434101    0.095246
H   74.304977   51.562523   65.486000
H   56.462063   38.309311   26.531990
H   86.894577   87.173248   78.171936
H   13.313968   94.189110   92.079567
H   43.226551   67.153435   97.374084
H    7.738623   76.887741    0.373667
H   95.350365   46.182007   60.741673
H   80.147453   39.185013   15.782920
H    8.852268   23.949289   35.806057
H   98.782578    8.148474   50.704208
H   60.546894   69.251930   52.494072
H   15.623294   83.176857    6.170685
H   19.077230   14.919025   91.426689
H   83.907700   48.231968   45.034309
H   22.684465   84.694115   89.348030
H   50.948662   89.137619    6.719023
H   57.094799   22.798122   47.589622
H   29.316832   64.473495   13.950253
H   97.796364   27.872517   83.809669
H   45.236794   35.019386   92.687622
H   53.082016   92.496124   68.341537
H   92.384285   55.966995   65.504906
H   64.686447   50.228577   98.759186
H   14.850691   57.832558   92.954407
H   89.647255   11.740858   12.137348
H   30.214333   13.164220   61.857647
H   35.165405   12.091465   54.857376
H   38.434917   85.557167   55.446037
H   63.173725   34.582600   17.436487
H   24.214693   74.767418   15.409067
H   45.473373   65.206345   64.779869
H   27.847530   78.120506   44.678841
H   61.429634   41.273060   64.201057
H   95.069458   81.901649   61.758141
H   92.455460   72.411880   29.159815
H   54.130852   71.454300   38.168701
H   81.569801   76.846283   26.976665
H   36.970757   68.909370   82.643051
H   49.333923   88.111107   43.614563
H   55.344784   62.191116   31.291351
H   45.592812    0.232649   22.337660
H   23.062361   71.514061   52.387039
H   42.202988   62.048866   94.093758
H   97.742508   37.752167   73.247482
H   94.635223   98.546272   21.503458
H   86.760208    9.031527   12.965128
H   52.694450   52.608788   41.399700
H   50.178059   66.114868    7.913299
H   84.510460   76.296410   11.886483
H   38.263916   31.101353   52.114723
H   31.686356    6.930993   97.425629
H   22.169050   51.734222   89.325066
H   10.111626   54.821217   95.838753
H   98.164574   71.648048   96.126740
