100
TIME:    0.475, STEP:   475
H   85.200356   78.461433   98.711136
H   88.057213   30.498455    7.963223
H   87.925598    8.077563   17.762589
H   81.556335   13.079844   14.126485
H   90.916519   10.830865   52.825783
H   20.650631    0.696671   25.786139
H   28.076180   93.411324   27.598391
H   82.552231   29.695545   64.582176
H   41.951591   40.624146   70.188622
H   61.859581   23.205990   26.290255
H   56.071686   85.355286   93.995216
H   37.711460   47.499901   59.117897
H   13.048055   32.969360   77.917381
H   31.562595    3.612733   93.387169
H   86.279747   27.594675   27.939123
H   82.425095   70.191109   93.610825
H   85.877266   13.409500   16.602659
H   11.294923   71.601364   83.078903
H   52.660805   98.278549   88.387863
H   79.791573   95.572845   48.593483
H   36.089371    8.929062   44.350456
H    7.893931   44.726883   78.810616
H   79.402092   90.759071   18.759647
H   74.908875   42.378635   71.798035
H   12.595160   48.503445   40.066177
H   44.480984   13.456225   44.651459
H   21.118612   22.731453    9.391951
H   92.462120   78.610580   82.475510
H   21.499695   92.187950   34.718079
H   19.207109   79.083511   21.149593
H   34.786900   64.638237   71.824364
H   95.749268   39.387543   55.290947
H    3.815554   33.728477   40.588707
H   98.171654   30.191681   51.739967
H   68.964958   23.013962   53.651642
H   13.854428   21.799444   19.009924
H   25.358025   87.139992   45.893383
H   44.357048   50.260365   55.959782
H   29.365608   70.368141   96.599731
H   18.454090   67.716148   75.406792
H    2.781612   72.477989   53.531933
H   88.930870   33.175995   25.116308
H   15.332437   66.348373   35.783020
H   49.027161   20.731951   27.174877
H   15.453098   13.150765   96.754089
H   71.884926   72.133598   85.181007
H   41.095631   51.365398   31.682074
H   56.264782    0.273897   97.968277
H   78.913872   93.110214   25.525637
H   35.852055   37.979198   50.441925
H   43.508381   23.785570   58.425205
H   28.216429   19.662159   42.879608
H   18.732370   24.762939   75.283638
H   65.688797   99.451836   52.776630
H    2.944169    0.145375    4.436745
H   94.160568   12.032742   76.456680
H   26.364868   75.840965    1.163800
H   90.689392   32.029030    1.319641
H   27.739220   58.838608   75.018188
H   27.673698   64.299118   50.099449
H   89.663742   56.479858   77.360474
H   82.052460   23.524124   73.863693
H    6.451334   74.761986    0.971063
H   75.657417   44.378365   14.243376
H   51.176651   22.906376   39.797020
H   72.165382   18.659443   74.271568
H   49.458733   64.782104   89.994797
H   47.554344   44.703293   88.910347
H   80.576591   15.655846   30.441212
H   40.008606   72.035789    0.731911
H    6.948360   63.085567   56.450535
H   34.801311   35.761284   91.398781
H   76.020752   94.812050   49.569607
H   19.735832   19.320425   74.977943
H   85.073288   29.319567   37.406544
H   36.888294   38.015610   63.966785
H   10.081527   85.374870   99.439026
H   54.296692   19.661293   40.673077
H   84.320625   52.111179   22.984875
H   76.230606   83.085289   79.999542
H   20.177204   34.195751    8.378532
H   76.963280   47.329666   47.060280
H   47.850254   15.185666   75.141296
H   82.845612   52.807957   20.044136
H   29.201502   19.171791    1.706627
H   40.360584   26.501385   74.768654
H   98.878883   68.816551   46.192974
H   63.601730   67.264366   90.801964
H   65.540474   67.724922   24.314404
H   24.339764   89.741089   41.192959
H   43.461521   99.080917   43.492870
H   13.432079   31.230181   42.574234
H   15.760830   41.863228   55.662193
H   93.137947   42.045128   58.844311
H   48.379749    7.181303   27.001160
H   33.154663   76.974052   42.914665
H   24.898954   94.939827    9.871218
H    8.609197   20.282013   48.435616
H   86.084251   38.897831    5.263957
H   68.740585   66.504066   51.936874
