100
TIME:    8.468, STEP:  8468
H   44.665520   45.465050   91.393326
H   66.610916   63.734325   12.039100
H   25.328066   83.126053   23.938568
H   82.897934   83.768303   76.003609
H   19.318544   51.504795   36.102142
H   96.700684   92.034081   17.360069
H    9.162896   33.137955   52.661793
H   54.318192   21.191866   30.690094
H   45.468269   72.128967   67.058060
H   43.468849   37.972935   39.277168
H   12.582291    6.971005   24.069227
H   32.641449   48.147594   90.167946
H    3.773354   49.429131   83.580399
H   35.796013   78.975136    1.657649
H   83.458321   13.629318   43.674156
H   61.043427   71.086693   30.123234
H   43.160896   42.062672   44.263802
H   82.146286   82.786186    5.984561
H   77.156006   33.596523    9.489947
H   64.370163   25.986738   92.873451
H   61.773598   13.200695   27.408529
H   74.215752   55.325378   98.149887
H   72.682198   25.755457   90.070236
H   32.258286   38.130096   78.167191
H   26.719627   14.605034   99.078041
H    7.679878   76.466843   94.005463
H   31.873487   90.472000   67.988937
H   18.036722   51.697315   46.680351
H   95.299004   17.375307   56.884911
H   25.693428   81.256271   56.570160
H   49.325626   81.397377   39.417870
H    0.432114   18.551098   15.338860
H   66.832535   48.922920   60.661270
H   35.895828   97.681122   15.008101
H   70.210548   18.523552   40.252758
H    8.746584   48.681122   92.804329
H   91.990501   94.417732   75.710655
H   13.994730    3.981794   20.004883
H   87.634758   96.915367   23.700058
H   65.601547   19.437281    4.278771
H   56.523544   46.738762   41.846889
H   86.576904   74.810425   12.267602
H   84.162811   14.284813   13.126383
H   38.633350   54.780518    8.691516
H   22.119850   97.791496   80.740654
H   68.817406   24.426453   17.563482
H    7.895942   85.356392    6.750963
H   56.704464   82.587646   92.529427
H   12.559967   31.130356    6.681091
H    3.527109   59.621815   91.449821
H   42.920139   52.112923   42.693298
H   16.673429   77.971802   18.164875
H   84.519753   71.109070   11.063848
H   80.591492   69.044785    5.486369
H   66.560127    0.699350   72.369171
H    4.142643    3.626209    4.356094
H   33.086258   45.206001   61.364723
H   95.511414   77.189003   95.437889
H   58.129086   96.571098   61.398666
H    0.219163   78.667130   22.760521
H   93.868149   84.769897   54.163235
H   98.372032   49.123123   12.203896
H   48.953693   29.442270   52.794281
H   24.521790   87.891815   97.231186
H   68.434372   84.519073   84.156662
H   81.146370   21.303825   46.878605
H    8.164698   41.122662   75.896957
H   95.422928    1.830725   71.021973
H   78.946594   41.329857   29.134430
H    2.005456   73.969009   83.883118
H   53.133091   19.237656   60.574348
H   75.947540   70.429100   76.746384
H   54.861893   99.450188   44.631374
H   43.793743   13.480560    0.014440
H   70.383301   40.783894   43.351032
H   25.845407   50.292915   26.140749
H   35.858231   92.873047   40.923630
H   29.819452   97.022881   82.100769
H   67.582954   28.645535   12.159128
H   84.246971   47.727654   91.395531
H   76.590401   16.887705   86.103729
H   76.727585   99.386734   78.570686
H   53.495003   48.733067   36.392803
H   32.734535   36.784645   89.996574
H   40.009476   19.196957   26.875469
H   56.403164   20.096817   29.826965
H   32.713428   87.659569   27.330208
H   92.217766   27.456020    7.778010
H   31.421040   22.687460   58.933479
H   17.653601   60.881760   26.928087
H   70.568138   30.678371   12.290793
H    4.845148   32.353485   94.878136
H   28.268497   81.599358   73.848022
H   65.664108   26.916615   97.783073
H   10.183640   91.217392   10.672480
H   93.343643   61.339783   30.065895
H   90.452599   53.639824   50.186394
H   21.932116    5.457291    8.885233
H    5.317139   73.369072   35.753872
H   65.189865   61.328358   81.990982
