100
TIME:    5.377, STEP:  5377
H   53.697670   28.923080   94.223221
H   51.975197   96.234573   17.142178
H   72.184006   60.746811   60.229351
H   82.379120   11.117565   45.431747
H   47.009750    3.747733   19.912468
H   44.640263   95.382790   11.248285
H   71.160393   24.418125   10.941483
H   97.264694   53.779972   14.495053
H   21.451012   69.316742   61.625267
H   27.900362   93.589119   18.246466
H    0.099595   82.597931   21.809978
H   50.617264   93.212044   10.188570
H    0.949471   36.433128   90.736015
H   88.844292   88.502449   66.433266
H   45.903770   89.732407   92.304504
H   85.325882   41.437027   86.702850
H   91.720680   37.617229   62.877869
H   16.051130   33.191914   13.131422
H   29.017033    3.923405   46.642422
H   47.649918   91.627724   82.423805
H   45.197914   20.919762   11.303669
H   77.878571   51.222031   61.377060
H   13.953038   50.891426   78.507660
H   19.456818    1.152804    7.729844
H   37.271027   59.737778   76.250221
H   22.034922   67.702621   84.788834
H   98.413803   18.960964    6.653336
H   78.845772    7.419868   44.508636
H   28.088997   36.935184    2.999197
H    7.171837   57.758995   10.844872
H   27.673485    4.222025   83.967812
H    5.264356    3.953249    1.488248
H   49.106411   75.075554   82.199577
H    5.292071   80.952812   45.226143
H   47.114136   52.460159   52.148964
H   40.050709    6.578126    2.521563
H   95.523529    7.617561   32.151775
H   41.750347   60.554859    1.882418
H   18.106602   64.261284   23.240870
H   56.739429    8.806181   61.086651
H   67.771851   40.680260   69.025490
H   48.366356   53.181496   55.411983
H   57.556087   95.744217   89.860420
H   36.003834    2.895544    6.471029
H   90.240776   19.743698   16.234873
H    8.715868   65.474869    5.005824
H   83.742477   17.257465   77.080116
H   56.526577   50.751328    1.276243
H   22.205925   87.126831   29.982761
H   38.649601   12.572729    7.590601
H   43.134388   50.529022   10.109199
H   66.444603   64.794968   21.071518
H   20.406597   53.186401   90.581230
H   52.170639   19.471329   69.088646
H   12.670063   29.819258   46.082241
H    0.292749    6.877641    9.581039
H   37.130013   34.395851   67.384880
H   25.672825   69.096336   75.055893
H   14.349842   65.960609   98.687538
H    4.193205   41.082623   10.675911
H   98.885468   28.517036   95.163231
H    8.076967   77.893723   52.063339
H   39.104908   40.366623   64.753418
H   12.268100   71.053940   81.154709
H   45.745499   31.391689   96.305244
H   71.028404   74.966515   64.113533
H   56.161865   34.259739   26.664326
H    8.939631   25.054014   23.254293
H   24.890692   63.429405   22.996140
H   39.323219   18.589275   90.410706
H   51.288979   29.549484   97.645973
H   30.609196   73.072739   50.301170
H   56.401047   52.336586   23.881363
H   11.841694    9.109104   83.670769
H   21.418493   36.306049    9.010822
H   52.776031   52.188835   34.125843
H   55.152355   60.504520   86.143272
H   84.601562   99.131050   11.390435
H   19.360378   37.724781   77.675301
H   35.828613   16.107666   57.687866
H   16.091158   84.909195    1.360141
H   44.769897   79.341507   37.155075
H   57.983292   97.041809   42.022320
H   20.079317   72.280563   72.310486
H   90.513435   12.549636   26.512444
H   27.539181    6.559482   15.178582
H   26.272406   12.401230   79.939590
H   42.505943   74.801270   39.826591
H   67.271347   94.789925   84.213875
H   90.939453   88.050827   16.432703
H   44.071678   63.772449   47.014202
H   76.142448   99.881531   35.980377
H   30.129412   88.856911   34.816242
H   66.933449   39.389477   89.362053
H   63.626305   68.091576   39.643009
H   38.039764   83.400116   89.719727
H   35.801018   76.255760   27.953094
H   26.602095   62.019623   69.989250
H   52.565155   60.028431   94.656303
H   73.196274   40.651333   79.757507
