100
TIME:    6.573, STEP:  6573
H   72.817215   19.245001   93.128250
H   18.945385   61.046757   92.553932
H   92.751205   46.791588   46.186352
H   82.579865   61.842865   79.874878
H   36.297287   99.612366   87.484818
H   26.089634   94.087074   29.692131
H    8.479964    5.177195    4.470273
H    3.261459   57.249043    4.682139
H   92.050987   54.326263   86.340019
H   95.227425   10.762840   65.077278
H   88.850586   30.721289    6.605232
H    4.966110   53.161091   25.055435
H   24.630020   64.108284   71.895195
H   29.624809   84.816048   57.449314
H   60.441658   82.900078   34.806919
H   37.238419   36.830482   87.424316
H   95.545448   16.724339   71.754463
H   41.627819   74.996933   71.669960
H   47.641392   54.100342    9.654185
H   15.430405   66.224403   63.853020
H   74.225586    1.853683   78.839394
H   92.540253   52.809738   59.526611
H   97.983177   41.164436   44.289825
H    8.331123   15.460421   18.905005
H   94.496773   64.889313   85.082985
H   16.582880   32.345146   72.321068
H   95.281548   69.246964   30.385992
H   77.930679   63.245125   84.041580
H   54.094551   45.445751   46.462402
H   53.030827   28.158287    5.923582
H   74.745598   11.469590   89.344170
H   80.780548   70.904343   90.768547
H   33.350079   87.570717   89.944702
H   55.826897   71.346512   94.841995
H   17.372513   62.001717   24.957506
H   44.017040    0.253906   98.760902
H   10.235578   63.817993   26.391882
H   92.318901   38.664570   86.279991
H   67.625763   38.200981    7.340037
H   44.090130   96.840652   55.185223
H   86.033966   81.718224   97.202736
H   46.277390   67.379166   15.523705
H   67.854523    2.917358   76.248222
H   59.634068   22.970297   23.409075
H   86.496529   72.553543   18.579668
H   93.279839   88.286758    9.864756
H   93.086227   82.299759   88.559059
H   56.590450   63.069748   75.277924
H   57.162865   88.074318   82.274948
H   63.740574   30.778391   23.947416
H   43.050259   35.063156   22.716114
H   24.572205   53.814682   42.559761
H   45.216808   60.121216   21.118670
H   24.477005   99.955353   21.864357
H   17.442898   34.631058   56.256344
H    1.782423    5.619565   68.866364
H   12.952325   99.885033   81.134392
H   36.616119   56.148888   44.250717
H    8.676169   16.495762    6.874032
H   25.268913   33.010883   76.658836
H   74.330406   72.895523    1.913958
H   65.629311   66.761520   97.945297
H   20.301008   58.753456   82.740112
H   94.395554   77.569016   48.684521
H   93.215988   35.869457    7.683639
H   97.557831   15.509624   34.830902
H   60.204483   75.606567   84.406204
H   26.323845   93.453651   80.430008
H   84.499580   77.492477   47.986362
H   63.549446   78.745537   87.892273
H   13.309660   48.174469   83.301857
H   31.993517   33.380051   37.866058
H   78.419098   93.179749   93.215149
H   85.511665   33.414478   12.608416
H   79.081047   38.012379   99.675552
H   81.048149   28.840019   53.649094
H   63.751553   56.891727    7.314743
H   40.791821   20.927511   77.442528
H   76.711494   34.211750   91.015694
H   77.179092   50.957466   54.651329
H   39.496155   97.282364   72.841965
H   34.529800   87.097687   37.107395
H   33.632179   17.041784   55.923454
H    2.362023   74.624901   63.074078
H   32.279243   37.740501   10.573700
H    0.010122   50.492538   98.232132
H    6.150580   25.442146   36.969444
H   61.740929   79.096252   27.426048
H   92.090683   28.197718   74.432137
H   85.197311   38.845478   59.183846
H   93.016869   28.355328   72.271530
H   64.634338   89.832062   58.764893
H    6.795502   24.741688   27.304758
H   82.521828   11.949187   70.006302
H   42.949608   60.961304   67.126770
H   36.824463   36.170380   27.945129
H   40.868217   44.890579   59.170151
H   25.589914   11.691632   46.927841
H   95.590660   65.186012   94.478920
H   47.484669    9.961502   64.543526
