100
TIME:    1.910, STEP:  1910
H   88.157135   46.864548   97.397354
H   48.140144    8.301558   98.482536
H   12.586020   11.317271    0.914046
H   81.797195   53.958458   35.469410
H   78.063354   25.852436   13.917032
H   98.398445   99.138847   67.900230
H   52.866283   90.309608   39.817345
H   69.764061   53.840435   32.824181
H    6.676552    2.654603   79.859825
H   22.644503   43.808128   82.483665
H   22.591476   43.095387   55.767956
H   82.941162   19.428850   56.973000
H   21.767635   46.149803   35.290619
H   60.509514   99.188698    2.590971
H    3.732158   99.418671   58.961952
H   24.728180   44.673904   74.494888
H   70.506317    8.308357   47.254944
H   41.960358    1.817201   33.330368
H   75.011436   58.482101   63.986851
H   41.058975   65.250351   46.374306
H   50.934525   66.071716    5.404037
H   45.491154   46.620918   56.622787
H   60.242775   79.088310   77.702530
H   41.581841   59.589176   65.222198
H   61.271233   34.693626   50.654358
H   37.901127   70.695023   10.148314
H   97.377052   63.082912   37.868168
H   71.380936   45.592052   29.906301
H   52.702011   22.382067   66.885582
H   74.231392   43.567612   35.227657
H   91.235725   93.324432   58.271854
H   86.355835   99.743279   22.445778
H    4.894878   28.737164   69.864838
H   58.803398   98.682755   91.286423
H   33.295784   14.538941   41.033600
H   38.622082   34.524288   14.073785
H   62.991936   34.588722   58.965824
H   85.047264   23.995678   57.223736
H   64.855881   39.735130   59.063446
H   83.292519   33.375225   88.309097
H    4.714737   21.720282   87.343307
H   59.961273   97.578438   92.535202
H   27.692785   74.953644   39.434624
H   57.392677   44.782539   67.482834
H   90.977226   56.530087   19.554052
H   53.445904   99.347115   90.926186
H   56.247913   28.774469   43.944038
H   56.341419   15.048609   86.757927
H   20.862074   74.262596   68.285385
H   65.947899   59.820820   50.075947
H   43.398899   85.245110   73.555588
H   97.956047   86.505463   48.674778
H   48.500473   33.083557   91.939751
H   32.461620   76.044624   16.099550
H   88.704834   25.945436   16.613722
H   95.956070   10.524630   27.605896
H   17.338114   34.434944   37.644417
H   83.834564   96.511337   64.358475
H   40.914078   19.470713   64.852814
H   32.978352   74.597443    9.285081
H   80.184769   89.748360   65.475945
H   31.121616   10.166147    8.931993
H    3.786260   76.905464    2.524637
H   74.196472   52.184418   75.285744
H    8.132476    8.295058   73.436432
H   84.011024   47.321236   59.119457
H   34.326157   14.397090   59.277294
H   48.429070   26.772541   57.511646
H   52.097595   12.545898   40.441048
H   69.077942   44.210938   97.711212
H   61.381386   65.444405   39.239994
H   16.479158   88.135773   96.462608
H   82.455811   23.830242   12.772770
H   88.155754   28.510611   89.691582
H   54.259254   31.361403   46.189190
H   70.814507   29.985319   67.409630
H   40.370605   61.001915   24.828047
H   21.715603   25.830050   19.921535
H   53.105392   47.907078   38.988029
H    5.855345    4.930792   56.372963
H   48.259289   49.041485   94.145317
H   84.632584   56.701309   27.064791
H   38.648510   39.136536   11.817867
H   81.561165   75.602760   88.972504
H   59.328430   29.412498   62.599365
H    7.329950   79.213142   74.419411
H   94.719292   64.480362   14.619572
H   86.702393   52.375305   75.886787
H   95.319527   87.826775   12.573278
H   97.468338   30.692780   92.496132
H    2.187608   76.565231   73.797440
H   19.607943   39.155697   69.914207
H    7.833626   84.862045   66.677933
H   31.836552   29.087858   55.599167
H   23.569309   78.643738   59.976250
H   51.679764   20.307398   68.794922
H   10.995778   77.291542   27.343597
H   13.878009   32.500183   25.475723
H   17.724953   45.083553   85.059097
H   57.858810   29.642635   13.725342
