100
TIME:    4.313, STEP:  4313
H   25.651390   26.497162   95.197342
H   81.361183   38.579262   50.054893
H   53.891251   84.198799   72.716789
H   82.200531   54.954948    3.752073
H   56.539902   18.463472   48.760986
H   61.143497   96.535500    5.876547
H   26.926422   52.572987   27.735224
H   80.892998   61.730183   12.188011
H   47.606163   71.615997   28.598600
H   56.977303   78.311653   76.583160
H   99.070282   39.785313   24.299831
H   91.224556   39.878914   85.925316
H   68.845688    0.773873   96.460693
H   41.526131   91.781990   85.461182
H   32.964195   84.773041   43.450726
H   28.108562   34.498405   75.024353
H   77.281288   67.240875   66.017754
H   93.301842   84.959358   50.016636
H   12.444798   59.290939   90.588394
H   76.316917   14.224760    9.981668
H    8.337173   26.844501   40.181152
H   75.871857   49.809555   51.986481
H   28.159264   59.544868    8.949544
H   18.317101   88.409332   86.752045
H   75.326691   44.117561   68.392311
H   26.885233   99.150497   84.843346
H   90.164040   63.192982   85.545143
H   68.622559   57.755966    9.335134
H    4.952651   40.400814   53.294075
H   66.372803   84.092735   26.259407
H   85.799095    8.810990   68.148109
H   38.082561   33.348045   99.988060
H   74.160011   52.922493   86.346054
H   60.336136   78.462067   90.051949
H   73.561523   32.890495   87.360199
H   47.559147   23.241825    5.868664
H   93.472000   46.584946   48.312794
H   85.727806   80.022484   26.798115
H   63.021702   87.445366   26.350267
H   56.956329    8.414273   77.372803
H   40.488312    4.174963   43.958111
H   43.993271    5.426872    5.430129
H   48.391232   89.363724   13.006729
H    3.945235   85.051514    2.437409
H   82.534523   61.720200   25.185995
H   22.444065   45.180683    0.680628
H   75.429977   59.393578   66.868080
H   56.469753   39.792465   35.441902
H   91.104538   75.246490   72.428284
H   16.334110   96.379784   82.007301
H   43.215565   53.251335   98.892395
H   14.736364   63.526127   90.920990
H   98.336449   47.016968   52.377781
H   76.812004   36.835037   22.136864
H   97.387054   36.569286   37.031033
H   98.962753    7.996865   45.802109
H   69.676117   65.096901   66.189629
H    4.900912   69.577980    2.461397
H   30.433798   21.003754   80.372246
H   74.404526   59.300694   40.938606
H   31.768511   77.996849   78.120003
H   45.837822   87.797287    0.203200
H   66.871208   12.971486   37.715111
H   39.205475   65.257919   10.040218
H    3.511860   16.371479   97.219582
H   36.390602   27.860695    1.201988
H   41.528793   97.475128   75.293686
H   82.437263   64.202347   72.388939
H   71.862717   39.881653   89.728424
H   17.768110   65.075684   92.651184
H   85.074745    1.942976   10.409748
H   18.340858    8.384892   72.400352
H   25.776125    4.969028   51.164871
H   35.264263   76.445107   46.889885
H   70.116951   34.788044   28.353052
H   27.619356   83.995934    5.719917
H   58.548203   52.724880   67.326500
H   34.612911   68.705223   52.631844
H   68.335228   40.850086   65.807259
H   88.007446   74.059608   49.352379
H   95.272354   73.901627   37.766323
H   64.935814   72.394730   26.127417
H   90.679665   79.250092   40.691998
H   46.877129   81.231636   69.490219
H   42.322449   79.104515   29.655334
H   52.030209   67.480309   41.291107
H   55.210243   89.762680   29.204115
H   25.379927   59.985008   50.889603
H   45.191269   54.031044   92.916023
H   85.011551   31.827240   78.395676
H    0.528299    6.321872   24.544474
H   97.414749   19.860573   15.708998
H   61.925163   56.929710   52.535442
H   64.096634   74.848999   17.622465
H   82.020958   63.398407   15.195291
H   50.157715   25.415379   44.676979
H   20.256729   15.194634   89.144135
H   22.697493   52.960297   87.020134
H    3.251858   55.441944   83.777962
H    7.108881   67.952248   82.255402
