200
TIME:    0.538, STEP:   538
H   18.628119   61.485996   20.435192
H   30.620371   37.228622    1.994854
H   11.891843   82.181564   60.026299
H   27.887661   80.456856   36.707069
H   12.046201   91.282013   49.373978
H   79.924133   44.726807   56.728958
H    7.676711   55.092690   55.419384
H    9.566640    1.754587   14.494636
H   99.530632   83.038681   40.449711
H    0.371078   70.724632   84.318153
H   22.580538    0.960102    2.378747
H   32.010071   49.976891   26.941290
H   18.488216   96.897865   49.078117
H   90.318626   54.464214   56.625607
H    5.234402   74.238609   42.245369
H   20.614254   13.688007   47.894516
H   98.226181   21.675312    0.963684
H   29.485928   97.492737   38.215015
H   74.940414   18.913307   46.870667
H   91.004326   75.612267   25.918766
H   61.661385   91.634155   12.187828
H   83.394783   60.204903   59.090942
H   86.081490   60.374756   41.985863
H   14.920201   90.776085   90.651649
H   16.199158   24.689116   34.776913
H   18.414412   75.561432   97.114311
H    4.666663   64.776222   61.063522
H    1.349269   82.422569    1.515395
H   23.619778   47.471870   36.593407
H   79.583130   28.747381   88.317581
H   12.972429   63.899265   16.559151
H   26.507023   70.490707    0.939949
H   19.922935   15.397829   76.819122
H   86.563850   63.903038   43.499023
H   33.687748   77.487411   31.952337
H   23.327011   43.127419   82.893639
H   94.817596   67.997101   88.192116
H   18.174816   52.463818    1.768775
H   42.041214   35.729664   51.055649
H   87.224884   38.463039   52.055756
H   80.592979   91.302979   11.415593
H   28.172014   36.858009   30.994884
H   71.336258   80.936241   61.393696
H   36.617386   77.707375   29.406214
H   38.958961   85.387115   55.117851
H   36.866211    6.083101   45.928837
H   85.589844   11.612432    2.712797
H   82.860893   65.546059   36.934647
H   98.605042   17.443478   61.381184
H   51.453266   19.146315   93.105209
H   71.119278   66.724281   16.058727
H    9.746603   40.827129   69.948616
H   60.213631   85.897621   11.824253
H   17.971447   88.472366   86.116142
H   64.585190   69.757507   81.135735
H    1.485506   65.008736   88.406342
H    4.580030   17.873146   46.457966
H   70.664413   65.506927   99.924889
H   21.893064   80.234116   14.333953
H   36.210995   94.315834   61.485397
H   49.454391    9.562346   33.529907
H   95.292046   17.130823   51.350456
H   79.657135   31.379751   74.831238
H   31.346294   65.577492   10.320984
H   76.138763   80.521606   30.115313
H   27.049952   28.138659   38.219803
H   75.043800   16.876163   91.991920
H   95.672630   92.127449   93.171440
H   27.122389    9.880290   58.207970
H   43.521564   46.823933   50.966679
H   58.334435   81.746292   81.252441
H   23.765274   15.988853   42.678837
H   86.951797   30.814983   89.517105
H   17.573793    2.414445   69.248085
H   82.773636    5.695506   53.600769
H   60.846062    8.555907   60.930168
H   94.168030   41.044029   67.930397
H   15.517691   11.396357   37.777443
H   13.796162   42.969975   28.338314
H   63.785755   89.004974   80.129181
H   56.015911   25.065546   96.709534
H   39.739887   63.231304   78.644768
H    9.837071   16.935110   81.560616
H   14.956305   71.604073    3.564041
H   28.296379    2.475067   49.337059
H   33.062828   75.347778   21.579414
H   49.211243    3.405075    2.454516
H   72.853310    7.453133   22.682098
H   74.806900   72.782562   78.244019
H   21.951538   99.404320   51.587032
H   28.750896   37.465328   79.429001
H   81.979668   91.150055    4.870129
H   61.416012   13.501209   87.242630
H   46.665020   83.727455   77.287209
H   32.675911   52.895180   80.351143
H   56.931190   34.371964   15.050323
H   83.347984    3.971935   11.163292
H   98.702583   33.069252   51.415058
H   30.265434   66.792847   53.937317
H   72.385872    2.769649   27.323160
H   23.161894   88.665771   82.972206
H    1.653512   81.165039   64.220818
H   29.356657   26.279303   34.667072
H   36.195183   68.489685    1.996348
H   24.943708   23.556526   34.749027
H   99.220604   12.182882   29.938986
H   79.774834   33.797001   54.872360
H   62.995358   45.716064    7.218430
H   80.369789   36.328049   13.542408
H   13.939555   23.905458    6.995753
H   51.115295   93.477196    1.005516
H   97.959702   70.839050   93.905586
H   51.918282   83.732742   87.453453
H   62.214714   12.972836   67.269348
H   53.905708   94.377655   16.323948
H    1.876951   97.079750   92.377945
H   20.322727   12.638848   87.654099
H   39.259197   41.664349   28.021782
H   30.179552   68.901794   68.811539
H   78.646873   52.622494   60.459328
H   43.664803   23.739704   77.754890
H    5.431009   20.420628   56.953873
H   39.420845    9.254177   32.869373
H   99.686752   56.595230    4.815331
H   67.999474    1.573726   82.957253
H   58.639980   70.505646   19.777575
H   87.979378   50.581345   59.546005
H   68.910378   89.907188   37.519405
H   96.134972   41.696766   78.099144
H   82.189117   22.736897   71.578468
H   60.638359   74.545441   14.799603
H   70.261726   89.007004   16.354557
H   91.464668   97.093224   99.591873
H   86.308395   20.643436   53.374935
H   19.147572   95.981812   42.723236
H   54.421082    1.244395   79.291359
H   69.386078   87.323891   70.173637
H   93.760185   54.916409   78.489830
H   54.102448   48.501068   71.479607
H   43.609367   94.797783   87.177185
H   65.370789   54.305229   24.536163
H   43.519638   50.065277   53.193752
H   45.425858   62.245953   89.332840
H   44.058083   15.740637   83.062599
H   54.309338   59.883911   58.813023
H   56.858902   67.109879   15.573898
H   51.779289   95.472771   45.148159
H   34.515373   62.325996   67.115257
H   73.151825   52.350296   94.982010
H   18.961285   91.928261   78.845123
H   65.716377   66.370895   49.094509
H   46.331734   98.864082   38.813683
H   90.019455   20.695873   93.003601
H   17.787426    7.982892   68.588463
H   25.429363   61.748966   66.144508
H   72.348518   44.267811   63.229088
H   62.430584   69.820557   84.284348
H   50.282845   31.878601   16.705666
H   98.742897    0.611484   91.553337
H   60.338680   44.784821   89.677078
H   56.883156   72.302681   75.492531
H   29.612524   21.511986   32.962349
H   78.046776   21.577232   37.108143
H   22.213221   28.934002   58.449165
H   56.100868   32.200020   12.752605
H   17.047962   54.957417   60.672817
H   69.768410   92.747017   55.380810
H   23.892536   44.490936   60.335407
H   98.122169   27.201105   36.153267
H   40.072250    8.210879   87.047577
H   73.671997    9.177730   35.951065
H   35.868263   54.378433   58.373222
H   43.430733   64.649551   82.039139
H   67.556412   67.410042   81.153168
H   57.587341   92.794815   85.219475
H   10.107926   49.270531   23.572645
H   32.356396   62.230240   99.373894
H    4.371107    9.485054   68.690689
H   67.980598   14.451964   65.649475
H   72.124886   57.651726   90.588814
H   75.977188   95.868324   34.790627
H   25.238390   30.469814   80.495148
H   51.914539   89.853928   11.970551
H   57.970512   25.771824   88.153389
H   89.376648   75.409195   77.169113
H    5.498949   38.738327   85.445656
H   41.728516   99.420097    5.868113
H   76.104446   79.847359   35.953873
H   97.988380   62.502300   69.949203
H   55.032600   56.652264   69.468033
H   62.056164   21.165054   77.173409
H   45.209976   93.027618   20.828680
H   10.719739   24.613552   64.632683
H   29.897345   75.424118   39.318890
H   74.668137   40.944782   20.841496
H   76.055679   11.114679   25.483627
H   11.442119   93.685112   13.525006
H   20.248934   91.483559   38.562500
H    7.939412   12.445723   64.689461
H    4.899638   24.896599   93.608643
