100
TIME:    7.440, STEP:  7440
H   14.185600   39.737038   92.334488
H   95.002640    8.025653   47.221554
H    7.657728    9.167605   36.006351
H   82.725388   26.123020   32.350574
H   28.530169   69.106148   63.976227
H   12.642392   93.147789   15.553917
H   63.037998   63.723507   72.270844
H   35.116966   32.256420   25.077492
H   70.738472   70.967697   31.764973
H   71.546852   23.212374   99.023842
H    8.204346   65.607132   23.091383
H   71.878494   96.619568   63.341682
H   69.325600   11.652683   85.739799
H   86.697197   82.143715   23.427166
H   70.972237    5.455345   93.113312
H    2.376331   60.999390   15.455795
H   25.826668   74.068207   50.680904
H   60.168781   32.808472   41.617760
H   61.141964   90.469681   55.328587
H   92.071701   47.814938   22.882364
H   22.776566   15.541420   55.306789
H   75.660385   53.960693   85.693573
H   86.407478   34.113182   19.483088
H   27.774321   25.832247   54.515396
H   63.487129   96.130112   91.486000
H   12.527096    6.771370   90.745399
H   20.519037   33.204506   47.590786
H    4.776641    3.713740   12.698592
H   72.946404   24.106890    5.479905
H   86.276230    6.699532   74.847374
H    8.865394   89.214905   20.749886
H   35.523312   46.950665   10.505959
H   94.420174   24.136297   68.050911
H   92.459023   91.891182   58.315704
H   95.794472   96.357658   77.707901
H   19.384178   68.161499   96.035652
H   93.391983   32.067505   94.708344
H   56.481926   22.795940   47.460808
H   31.027363   19.311663   23.320885
H   62.427658   15.675185   23.397848
H   26.779909   11.468709   17.627653
H   73.211235   70.779114   59.783794
H   75.315887    8.118240   38.872379
H    4.275473   37.522606    8.179629
H   11.291286   38.347355   92.770576
H   82.087791    4.822670   13.387075
H   99.859665   29.451183   96.880333
H   56.641720   71.999573   28.922558
H   82.508553   16.269695   47.690254
H   81.944092   43.974995   63.328728
H   42.990726   51.359726   31.854301
H   66.712570   73.362595   85.647003
H   63.202137   65.148376   70.766273
H    4.401436   85.813156   60.122818
H   48.411301   10.610578   63.631718
H    2.862270    4.707565   39.351639
H   67.914307   74.868294   63.593361
H   72.058029   74.271095   21.918047
H   77.051079   53.134502   40.316963
H   68.054344   99.650299   51.999290
H   29.021894   32.577560   34.314934
H   34.857796   58.691605   58.719322
H   79.162727   99.590363   23.287323
H   53.932041   82.291901   25.142857
H   27.628426   66.624939   88.423485
H   44.296387   72.408928   86.094711
H   90.643005    5.583542   26.265886
H   66.434044   43.039360   21.877625
H   27.710449   15.195374   93.608276
H   81.127296   22.336908   86.063477
H   85.778343   89.184265   72.903572
H   60.600590    4.562161    1.395907
H   21.889406   50.298878   70.989807
H   66.421684   78.541260   61.093933
H   20.863371   39.270191   65.407501
H    1.540851   84.407372   95.312202
H   42.493855   81.849800   22.690615
H   81.525055   64.238350   25.322664
H   18.289015   31.665096    0.686726
H   34.659897    3.726990   79.958595
H   56.465218    6.252572   24.661530
H   99.588844   92.720169   64.572762
H   88.471581   31.541174   38.491379
H   62.008282   48.816280   83.888084
H   90.063614   83.504234   26.527918
H   80.060226   82.338440   58.439407
H   64.055565   62.403862   78.311226
H   75.684685    9.717321   18.436691
H   10.084111   79.925163   67.341194
H    8.542405    3.172482   90.179230
H   28.498188   75.169289   90.580978
H   28.783556   55.038315   75.286278
H   62.371830   50.757244   94.351204
H   66.312630   64.549034   28.466547
H   27.959839   83.299789   87.050201
H    8.435134    1.935117   83.163124
H   72.050194   94.646240    9.307370
H   23.916399   54.589428   29.524134
H   54.288567   68.929924   21.859066
H    1.339279   87.711472   81.021698
