100
TIME:    8.285, STEP:  8285
H   57.041252   62.247124   91.560867
H   71.665085   53.817265    0.500290
H   22.182474   69.960083   26.086590
H   82.867218   91.307671   86.033760
H   20.958357   36.836536   41.064163
H   99.537720   92.232338   99.236977
H   18.753700   20.780375   38.350956
H   68.701630    5.360385   47.493111
H   49.966759   89.723618   78.576538
H   48.467171   35.345325   32.111977
H   29.604507   99.607758   41.696304
H   39.626534   38.974697    3.194160
H   15.442907   60.505020    1.766951
H   44.857216   79.539192   87.732002
H   81.235603   29.975784   52.474274
H   68.401291   87.092491   45.313751
H   57.876625   29.959194   27.604589
H   78.234192   91.691017   12.327808
H   74.305008   25.918934   99.849197
H   69.301468   29.873003   80.413948
H   72.633080   31.419437   32.375385
H   56.671360   55.082443   13.733963
H   75.125511   27.243086   95.305908
H   49.262352   35.940887   91.757599
H   33.264351   29.118317   97.726540
H    8.542950   81.861679   11.226561
H   47.654495   98.078384   64.358871
H   33.477699   43.155491   40.630707
H   91.319893    0.772336   65.535637
H   18.676929   85.785477   42.021973
H   42.122738   64.986687   53.896248
H   88.877342   23.606663   32.280098
H   53.941921   62.312279   44.175186
H   28.163441   14.451792   22.717104
H   74.764885   32.379234   29.118231
H   92.838898   34.346550   93.379555
H   74.437737    1.119501   61.290920
H   21.558437    7.330879    7.091608
H   95.358421    0.902704   41.433998
H   82.838776   36.569283   89.881165
H   69.030518   40.460144   37.535488
H    1.999141   74.092789    2.925153
H   82.587921   13.187067   99.908394
H   50.317974   51.707527   90.798737
H   37.993446    5.010643   65.081108
H   71.179741   20.936703   16.820017
H    6.465167   75.404427    4.993623
H   56.693295   80.702805   81.206413
H    7.211179   46.285881   13.981363
H   99.685791   56.836437    4.244699
H   42.932705   69.780174   40.763779
H    7.779388   94.952133   30.178299
H   80.724937   70.047974   21.692263
H   84.830292   72.029816   97.411331
H   81.130653   84.662796   70.813828
H    3.914716    3.818707   10.585846
H   21.485405   50.486351   43.959953
H    9.137883   94.470909    0.151401
H   43.695385   88.839058   75.447281
H   12.295066   64.602020   27.965477
H   82.324539   93.281006   68.431221
H    4.867104   50.826462   20.484097
H   36.529095   41.929840   65.343140
H   11.955479   86.894943    2.199325
H   61.170906   99.134277   67.114899
H   92.388405   30.401329   36.058216
H   22.847616   34.796574   67.061935
H    8.064150   91.364861   62.273514
H   69.826752   54.479073   40.612419
H   98.288780   64.776566   84.271255
H   58.945385   31.689480   62.769142
H   91.017899   76.505272   63.331966
H   66.793640    8.502211   49.323933
H   47.821720   25.062565   10.887312
H   61.567825   40.514431   29.475805
H   21.518648   38.563614   38.453987
H   19.237576    8.711990   37.677513
H   21.222479    8.988140   71.992432
H   58.807396   29.183064   10.116867
H   93.221611   57.696373    7.161083
H   73.007805   14.994485   75.166061
H   62.994865   98.199982   93.881187
H   41.919281   45.672642   18.964298
H   20.144531   21.124613    6.711142
H   48.919891   30.644230   44.615120
H   60.615437   13.374911   17.118942
H   20.491274    0.965173   18.604088
H   89.274620   42.100327    9.675438
H   27.622734   32.876137   60.430183
H   33.833302   68.410538   20.386290
H   63.079029   20.797611    8.426169
H   91.305000   18.590630   91.390480
H   16.537800   76.109581   59.696350
H   47.978577   15.814198   85.443642
H   13.348080    7.609105    6.467537
H   78.228607   68.566406   39.518028
H    4.978321   43.137764   60.710793
H   22.285349   96.402168   12.559278
H   14.034587   72.578835   51.082523
H   53.823421   66.024307   99.619141
