100
TIME:    1.772, STEP:  1772
H   97.489655   59.519882   97.523697
H   51.978859    0.819308   89.777519
H   10.213934    1.389346    2.534106
H   81.774033   59.643883   43.034184
H   79.299408   14.791127   17.658504
H    0.538008   99.288353   54.233402
H   60.098354   80.991829   29.025566
H   80.610588   41.902096   45.495308
H   10.068855   15.922956   88.545891
H   26.415308   41.826653   77.080406
H   35.427902   37.542622   69.060669
H   88.207550   12.511717   66.796150
H   30.545826   54.498955   49.006180
H   67.342552   99.614052   92.089531
H    2.053444   11.745178   65.595749
H   30.276733   56.744904   85.949966
H   81.601318   99.182175   34.691208
H   39.011307    8.528271   38.114548
H   72.861504   52.692444   56.716877
H   44.776611   68.181503   36.978615
H   59.123642   79.809387    9.149574
H   32.258854   46.438774   68.373329
H   62.085274   80.210655   81.650742
H   54.403526   57.934086   75.470703
H   66.207024   45.638069   49.636246
H   38.533894   74.807480   23.083063
H    9.276863   68.819046   35.129688
H   83.025528   39.150677   25.344801
H   49.701370    9.861896   73.409081
H   68.939735   46.983078   24.257263
H   85.807198   80.949158   69.191528
H   77.642395    3.555866   35.221138
H   95.174515   38.833885   57.432709
H   52.972679   11.329451   97.100296
H   36.725990   24.970680   32.630753
H   26.623493   23.683428   14.548097
H   49.756477   39.642433   48.091923
H   90.751640   26.521481   47.485867
H   71.059311   42.681023   72.289825
H   96.291084   46.294827   77.452042
H   14.145172   16.985060   84.092087
H   72.363922   91.385536   86.051712
H   26.504110   74.126099   29.467098
H   66.205086   42.469414   53.990208
H    2.948061   61.974407    7.744688
H   55.226284   96.714973   90.366066
H   54.790760   21.329721   42.764839
H   56.334049   13.627779   78.219261
H   16.828581   85.692406   73.789719
H   63.054302   57.720371   59.727482
H   43.409428   98.567955   72.100540
H   91.249352   99.310303   57.734608
H   45.637756   32.283386   99.954094
H   35.657040   78.295631   10.010355
H   99.690338   13.847589   15.442820
H   95.783401   10.669661   32.303741
H    8.589706   38.416847   24.519506
H   94.110443    9.543870   67.912918
H   30.030701   13.639573   75.446655
H   42.084507   63.990963   13.209867
H   71.479752   96.166573   76.236137
H   36.019409   11.450895   15.176221
H   94.426071   86.315895   11.992175
H   64.720764   51.433731   79.031807
H    2.654878   19.317070   60.584988
H   92.488625   54.181648   50.959820
H   45.397995    9.626334   52.614819
H   57.961632   18.879803   50.914448
H   45.219284   22.461700   49.096581
H   66.281555   37.269455   98.001801
H   65.763374   74.833778   40.895084
H   27.857904   92.715698   86.359398
H   91.453522   30.655910   16.311420
H   91.192192   37.243843   97.893333
H   47.606255   31.165045   35.728008
H   67.552757   21.140799   76.695824
H   27.840734   72.962631   22.386999
H   15.232112   34.853722   12.300035
H   46.490295   48.311375   37.448753
H   12.623327   12.446608   68.261818
H   45.558712   47.613811   85.897240
H   74.278793   55.800064   38.604324
H   29.917171   36.832886   98.674225
H   72.068611   63.793926    1.577307
H   66.047760   38.044868   75.976959
H   10.506390   74.144691   64.836311
H   85.502586   74.514084    8.038956
H   84.480865   63.423981   77.322884
H   92.455757   95.510521   13.702204
H    9.669445   36.370834   87.562447
H   96.540047   69.113113   70.883133
H    9.397171   28.776800   67.284172
H   98.979546   80.726425   56.001968
H   18.497913   20.717123   46.295074
H   25.955608   91.004272   56.805046
H   40.281540   25.756456   75.922760
H   21.949291   69.371956   35.280029
H   13.371322   31.325195   27.684090
H   24.298462   44.488689   96.619461
H   49.288559   33.187252   27.017082
