200
TIME:    0.084, STEP:    84
H    4.677585   62.992725   12.672073
H   26.573851   30.600563   83.564201
H   21.407429   62.310059   37.664360
H   12.584065   75.150398   48.579056
H   16.866512   79.775452   55.901405
H   94.693542   57.049080   70.167351
H    1.099107   55.414818   46.631863
H   99.392799   82.149933   30.609669
H   81.093117   89.844940   51.525036
H   16.352718   77.084068    2.225573
H    6.756165   91.261665   88.031921
H   30.132721   37.858978    5.309148
H    7.345347   81.830574   67.685356
H   11.777477   52.548763   34.748592
H   27.153662   70.743690   43.362427
H   33.847492   32.393963   57.688255
H   76.868729    0.412306   23.006092
H   40.266632   75.667679   46.297665
H   59.835026   35.349468   40.187370
H   89.559944   81.847008   43.518055
H   56.212914   68.970871   32.987537
H   93.501991   42.851540   76.586319
H   99.676689   63.675705   52.879341
H    5.327519   86.675179   92.081856
H   96.465935    6.429757   50.976849
H   18.790228   55.413563   12.108862
H   95.875069   55.666569   42.809586
H   90.930206   63.694069    0.320797
H    4.498213   61.271431   39.251831
H    0.098898   16.585306    4.022041
H   13.565163   44.931797   16.004086
H   34.762859   59.850082   89.762398
H   30.892616    5.628769   71.273666
H    1.589761   63.407722   35.563583
H   55.474705   96.247055   35.405704
H   38.157036   53.478821   77.687630
H   81.786987   77.796036   84.783791
H   40.631474   40.719990   22.181503
H   58.843842   51.986752   40.964027
H   91.578812   40.329998   69.790131
H   80.458389   12.512317   96.346062
H    5.574564   46.378113   44.456795
H   79.510696   91.365578   44.535648
H   37.628799   55.657829   13.169044
H   23.447058   71.535599   38.734337
H   43.255089   17.898438   40.991268
H   77.034393   33.854958   92.758415
H   93.913704   65.552986   53.255814
H   81.047318   34.672146   61.053860
H   67.699570   17.097509   12.312426
H   81.919235   72.470634   34.051151
H   27.101542   33.012920   60.187103
H   47.970055   98.886620    5.887280
H   24.728348   78.891647   79.393013
H   83.802048   79.854324   95.818550
H    7.305464   76.193169   73.539948
H    5.875688   16.155128   51.327991
H   65.704330   54.952900    8.119050
H   31.472918   71.463913    3.353448
H   46.711338   96.865150   69.878052
H   50.924751   18.420008   46.794319
H   87.133804   16.055330   47.870640
H   67.149551   21.974817   90.147919
H   20.346306   64.929771    0.184498
H   68.840652   73.753448   11.550402
H   44.859039   10.500538   30.059219
H   92.002296   26.452553   82.612099
H   98.215019   91.095253   84.183022
H   10.973679    3.745131   63.954323
H   46.134960   38.911007   50.990925
H   58.533600   73.893982   69.108551
H   36.524540   27.922319   45.856823
H   72.542618   22.966137    4.719213
H    2.783113   12.393617   56.031475
H   77.245499   98.346107   74.947830
H   49.370674   24.584187   63.896866
H   96.086945   24.142687   74.352180
H   32.333279    3.129251   53.301949
H   10.344540   22.743040   38.393566
H   70.626709   91.536972    1.659860
H   36.747097   32.738525    3.449203
H   19.777122   71.395515   92.679863
H   11.608344   11.955112   94.844078
H   29.761217   56.758461   88.767059
H   44.463409   97.674255   62.203140
H   20.272156   91.232513   31.030243
H   28.863474    2.459040    1.413692
H   76.628792   24.350367    5.558240
H   60.916092   71.662666   76.598610
H   24.225487   79.054817   56.581753
H   47.782028   33.546101   81.448364
H   85.142067   87.166748   94.963913
H   39.849003   18.621490    0.172779
H   67.023438    0.038232   64.821190
H   21.171997   59.036400   61.442558
H   75.732399   24.221458   36.396320
H   77.189445   19.674879   91.610626
H   11.183229   26.014599   47.116550
H   40.552757   71.340744   52.328407
H   64.491997   95.392288   27.212320
H    2.906143   76.113159   61.593773
H   84.771339   74.296432   66.725105
H   19.945662   42.870941   28.322720
H   14.379816   67.651459   83.967453
H   25.545534   29.522827   20.029842
H   81.247231   34.410694   51.194344
H   58.268444   28.159754   56.985245
H   65.670021   28.284767   24.773764
H   68.832054   42.058815   91.589195
H   99.355560   30.235453    4.773760
H   45.142067   97.422401    0.686093
H   79.730011   59.421852   88.734215
H   59.803497   78.464386   97.328590
H   63.752617   22.760513   78.976807
H   69.056129   75.472534   32.242466
H   20.404842   10.361078   71.896820
H   38.988850    6.246015   82.361496
H   41.562588   19.317997   37.096794
H   12.937896   51.856709   91.249680
H   66.665779   43.561337   43.523346
H   38.926399   20.722782   92.631676
H   25.020191   31.175556   43.599403
H   28.475409   28.401913   19.401411
H    6.375709   72.932930   24.696571
H   81.583755   12.813282   97.972687
H   42.007076   58.083828   28.543447
H   99.264259   48.461533   77.079483
H   78.840935   86.346458   33.685040
H   90.547951   58.130505   88.445351
H   60.183945   24.888748   63.843925
H   42.311684   90.755768   97.449722
H   87.687828   84.504135    5.648170
H   92.947151   75.004921   96.214722
H    8.570054    9.003189   47.786728
H   96.719589    4.190816   63.585373
H   66.513016    1.827062   85.979851
H   68.634445   86.167000   47.572701
H   89.887718   69.091164   85.663246
H   42.235657   42.152023   71.586983
H   43.363441   16.571894   99.792145
H   42.894543   67.656708    9.870847
H   64.419876   36.270912   42.610279
H   60.020348   53.889668    4.645947
H   64.861336   32.174820   75.539345
H   32.969204   74.940811   43.967411
H   40.224266   59.287697   37.317558
H   41.041679   97.460960   48.398884
H   46.912117   79.225609   69.719994
H   61.014866   71.304977   99.495270
H    4.465650   86.934372   95.828224
H   81.718880   58.660595   52.521885
H   27.220736   11.426191   53.041016
H   68.928711   37.671688    8.941177
H    5.786047   97.561630   79.807533
H    7.426541   49.759212   57.930687
H   58.871086   43.142094   49.261536
H   57.678326   56.205563   78.908615
H   43.828156   39.162857    6.069331
H   19.521650    2.322135    8.390031
H   65.428169   63.308929   72.254440
H   52.423584   90.747124   87.563683
H   50.928509   23.864735   36.895432
H   58.504330   41.371262   37.296917
H    5.548548   15.596838   77.873352
H   60.447868   16.795012    8.291735
H    9.225959   69.402321   63.154591
H   77.586082    0.090141   50.567936
H   23.495937   23.834892   41.561909
H   91.953239   28.677526   37.225296
H   19.353859   11.636956   92.160065
H   82.345215    3.778617   35.989166
H   51.552101   71.240936   56.979065
H   34.658798   84.157364   94.813431
H   73.142906   78.283844   70.630569
H   78.688477   96.210068    6.566062
H   96.090744   46.818199   23.137079
H   37.020329   48.047935   80.382179
H    0.347411    9.052086   62.885448
H   79.591072   25.006060   70.959396
H   93.721336   52.781700   84.184349
H   84.265930   79.599113   45.346390
H   16.081114   29.915615   63.921131
H   72.816727   90.327621    2.982477
H   48.084129   24.931421   71.451210
H   83.505600   95.100586   79.039536
H   95.994560   34.907425   83.173439
H   25.920317    7.196757   95.808853
H   97.915649   60.616947   20.068058
H   11.136024   60.477741   64.760513
H   46.776764   59.121914   63.732075
H   40.367924   36.185585   80.415474
H   48.931770   80.689758   26.611403
H    0.635350   13.812728   54.232681
H   37.829090   57.304626   30.169233
H   90.248062   61.223278   22.326576
H   74.947281   10.000652   31.703648
H    8.424331   81.305687   98.201370
H   33.443298    0.506537   51.366234
H   13.993606   11.175394   84.993935
H    9.634869   40.277760   99.916122
