100
TIME:    9.097, STEP:  9097
H    2.129474   87.783485   90.817459
H   49.238937   97.816071   51.700710
H   36.139965   28.378098   16.555477
H   83.003510   57.854301   41.525261
H   13.682249    1.921904   19.048714
H   86.949341   91.352638   79.652679
H   76.195381   75.611610    1.850417
H    4.880035   75.607498   72.938042
H   30.006248   11.652644   27.463072
H   26.288027   47.004444   63.905067
H   54.074249   32.278427   63.479347
H    8.632607   79.676292   45.394310
H   63.664154   11.359396   21.072945
H    4.652892   77.036385   49.526554
H   91.098152   57.443947   13.426758
H   35.753281   16.072227   77.910217
H   92.580299   83.666512    1.524151
H   95.598984   52.178871   84.179276
H   86.955338   59.985615   42.626278
H   47.425182   12.629030   35.698631
H   24.447838   50.582802   10.336329
H   34.518597   56.160385   44.584686
H   64.284142   20.642241   72.074402
H   73.816055   45.654755   31.451487
H    4.224206   64.723969    3.721619
H    4.712965   57.923935   34.813595
H   77.635017   64.327652   80.466049
H   64.962189   81.056915   67.473137
H    8.976356   74.443077   27.151386
H   49.812019   65.688675    6.574331
H   74.081139   37.801395   89.653412
H   40.147358    1.173532   57.109215
H   11.136782    2.903025   17.326559
H   62.472076   40.036865   88.509850
H   54.556572   70.899452   78.522079
H   63.424107   97.948013   90.827187
H   52.319168   71.383064   25.273214
H   87.996254   92.472710   64.389854
H   61.086773   83.209740   62.745483
H    6.358091   60.553513   53.768372
H   13.536127   68.320328   56.665859
H   33.568375   77.277054   44.378445
H   89.575958   18.058594   58.557545
H   98.471718   65.342262   70.189766
H   67.557541   72.981239   34.566914
H   60.699638   36.422161   20.118891
H   12.813617   19.564276   12.791441
H   56.742855   89.066147   31.447956
H   30.944511   79.036415   81.591583
H   16.729986   69.198204   47.470997
H   42.876949   91.386513   49.325363
H   47.243557   19.604572   76.874550
H   97.563133   74.756226   74.533981
H   66.022064   58.782318   33.240852
H   16.478176   55.823158   77.715134
H    4.926062    2.964562   82.943436
H   72.961304   27.056602   21.187979
H   48.674255   17.787779   79.236839
H    7.739694   23.149611   13.108385
H   58.709408   27.013737    4.870262
H   33.547009   55.517262    5.123311
H   76.047600   43.268478   83.744972
H   91.655899   86.519798    9.661865
H   67.715759   91.318222   80.156738
H   93.398193   34.281460   42.732960
H   42.505714   90.034874   84.070000
H   57.699265   62.866428    6.264736
H   51.973785   37.805122    1.091812
H   10.294241   96.133942   89.684479
H   14.780334    5.564257   82.549026
H   33.155315   76.439720   53.030495
H   24.151659   49.544334   22.852592
H   13.850523   68.334190   28.502308
H   29.948948   73.669899   62.640694
H    0.683436   41.710079   91.042389
H   40.717163   90.605217   83.816391
H   92.984207   38.432194   52.081047
H   59.366390   55.896400   16.842537
H   97.748772   26.797962   19.179247
H   53.399712   13.462376   37.206474
H   88.904350   23.394999   23.698708
H   23.927940    3.469356   25.949263
H   93.279060   59.252232   96.294746
H   76.007454   90.608986   32.546902
H    9.382965   79.847946   65.901535
H   41.924915   43.202232   73.506454
H   74.722908   41.926155   57.323265
H    2.333645   77.124245    1.256260
H   44.474125   87.666206   53.789070
H   62.042812   35.001350   49.411423
H   96.309380   64.640198   25.574120
H   51.384777   79.660934    6.863264
H   68.588760    0.468700   22.489557
H   26.455317   65.077377   40.194271
H   99.307526   34.875950   25.124777
H   45.296509   36.500732   97.576828
H   40.524956   89.737068   14.011240
H   20.717997   36.580082   96.256248
H   75.352989   76.085243   83.068428
H    4.262030   45.189693   21.396832
