100
TIME:    1.578, STEP:  1578
H   10.608881   77.310715   97.701309
H   57.375313   90.301628   77.540031
H    6.879201   87.432045    4.811614
H   81.741470   67.636436   53.668720
H   81.037048   99.241188   22.918083
H    3.546432   99.498528   35.020191
H   70.266090   67.892921   13.854515
H   95.858604   25.119213   63.308342
H   14.837746   34.575211    0.756807
H   31.716295   39.041100   69.484520
H   53.473312   29.736561   87.748444
H   95.611023    2.787813   80.605507
H   42.885529   66.236168   68.287804
H   76.948418    0.212064   77.326988
H   99.693611   29.073570   74.920395
H   38.076874   73.713432    2.053460
H   97.198639   86.352646   17.028517
H   34.865540   17.962738   44.840134
H   69.839134   44.553360   46.496769
H   50.002853   72.302109   23.770182
H   70.635880   99.121765   14.415039
H   13.656878   46.182716   84.891273
H   64.675453   81.788445   87.201126
H   72.428215   55.607365   89.878021
H   73.145744   61.023735   48.204987
H   39.423435   80.588760   41.266487
H   26.005722   76.882645   31.279943
H   99.395462   30.095409   18.932257
H   45.483078   92.260742   82.579796
H   61.500744   51.784531    8.835334
H   78.175789   63.552032   84.543152
H   65.393066    8.915534   53.180702
H   81.510208   53.028069   39.955658
H   44.775871   29.108345    5.273107
H   41.548164   39.635536   20.818054
H    9.755506    8.443552   15.214883
H   31.150074   46.746925   32.805424
H   98.770836   30.072247   33.796398
H   79.780075   46.822350   90.882874
H   14.563822   64.457130   62.189045
H   27.402451   10.328300   79.521530
H   89.799530   82.679573   76.937241
H   24.833075   72.962738   15.454242
H   78.593544   39.217628   35.022694
H   19.776081   69.629105   91.143509
H   57.729137   93.014717   89.578651
H   52.742298   10.864099   41.107124
H   56.323689   11.630381   66.215630
H   11.158307    1.760241   81.527695
H   58.985500   54.767567   73.296593
H   43.424229   17.297842   70.055038
H   81.821098   17.312101   70.470139
H   41.613358   31.158508   11.221397
H   40.149151   81.460091    1.450157
H   15.134848   96.840530   13.796576
H   95.540665   10.873545   38.907959
H   96.290833   44.014595    6.068350
H    8.556036   27.865189   72.909744
H   14.730881    5.442395   90.339447
H   54.885914   49.078930   18.727501
H   59.242260    5.188636   91.362785
H   42.904846   13.256990   23.954674
H   81.267960   99.545052   25.301369
H   51.398438   50.378418   84.298012
H   94.955101   34.811657   42.517376
H    4.406318   63.825996   39.489025
H   60.962753    2.919480   43.248730
H   71.362480    7.784219   41.640125
H   35.549774   36.401306   61.264503
H   62.351021   27.511480   98.410309
H   71.923561   88.033333   43.221806
H   43.853565   99.154144   72.156334
H    4.102688   40.251415   21.286045
H   95.460808   49.521294    9.423363
H   38.253487   30.889006   21.021156
H   62.967068    8.707197   89.750328
H   10.226774   89.776596   18.955381
H    6.117640   47.539680    1.585852
H   37.190811   48.879734   35.284843
H   22.137558   23.012320   84.975136
H   41.762249   45.606792   74.302116
H   59.723034   54.533096   54.826248
H   17.642681   33.594421   80.196625
H   58.723423   47.193096   19.297096
H   75.493774   50.180229   94.783142
H   14.971859   67.019478   51.364418
H   72.545769   88.619461   98.788116
H   81.357849   78.956177   79.340431
H   88.429878    6.312058   15.289244
H   26.821751   44.353027   80.626686
H   88.600777   58.637707   66.786209
H   95.042976   14.186689   63.587044
H   86.531883   74.912582   40.993729
H   99.746773    8.949567   33.215408
H   29.310261    8.381310   52.346977
H   24.257950   33.416862   85.943054
H   37.347794   58.238628   46.437042
H   12.659022   29.673401   30.788605
H   33.539604   43.652431   12.869900
H   37.240524   38.170757   45.702095
