100
TIME:    6.496, STEP:  6496
H   78.024490   26.306017   93.198746
H   21.071709   56.874004   87.699135
H   91.427063   41.251808   47.090458
H   82.566940   65.015167   84.095215
H   36.986969   93.440475   89.572662
H   27.283947   94.170494   22.066563
H   12.515397   99.977638   98.448738
H    9.313507   50.587795   11.752114
H   93.943794   61.729477   91.186592
H   97.330544    9.657087   62.062412
H   96.012939   27.623007   14.022251
H    7.905190   49.301456   30.536175
H   29.543564   68.764519   79.546318
H   33.437263   85.053383   51.589367
H   59.506416   89.778099   38.509701
H   40.334351   43.565163   93.815918
H    1.737341   11.631492   64.744850
H   39.981159   78.743774   74.339394
H   46.442379   50.869881    5.597707
H   17.504738   67.859901   58.610497
H   78.794876    9.519444   80.929588
H   85.158188   52.707520   66.083878
H   99.011238   41.790672   46.492813
H   15.485546   14.539278   24.623667
H   97.250801   70.995407   84.514320
H   16.933889   34.621567   79.562141
H    1.921150   72.447464   28.858000
H   84.428024   59.651024   81.496689
H   52.420280   38.459637   50.102325
H   50.078236   30.064018   99.802444
H   71.715462    4.564950   95.436165
H   75.918701   73.032135   97.896828
H   27.926250   93.204491   83.007935
H   52.573524   78.403122   98.085968
H   19.288818   67.831703   20.272486
H   37.323483   94.223000   99.002937
H    2.850333   66.637817   20.324560
H   95.501778   40.073895   80.845955
H   70.875610   39.878777   14.801710
H   51.342365    4.049072   49.126713
H   91.296463   79.075813   95.388649
H   52.766510   67.077209   11.592694
H   67.191864    2.455428   70.686119
H   64.550613   21.677877   15.880441
H   93.175987   75.591904   11.990386
H   94.273827   86.818100    9.551931
H   92.484665   78.112320   87.820030
H   56.586338   62.276672   70.513596
H   54.912292   94.451820   85.346207
H   62.124462   29.606108   29.331224
H   43.055546   42.496918   21.904533
H   20.829182   60.959999   47.614296
H   43.619495   59.674744   25.590734
H   26.259956    1.211789   18.466763
H   23.573959   27.883045   55.601322
H    1.686519    5.700562   71.487625
H    8.070945    2.106924   73.811073
H   42.349762   63.420509   46.233994
H    2.603414   13.241927   12.785221
H   30.349884   27.092190   78.848900
H   69.473259   76.476700    7.917393
H   68.362190   67.478226    1.429158
H   15.073465   64.007729   88.020233
H   89.108383   77.149567   50.775303
H   90.160004   42.019611    0.512767
H    2.287958   19.337517   30.278059
H   66.382248   72.944183   80.688736
H   31.642738   89.050026   76.748962
H   80.662270   83.025208   52.815899
H   61.989731   74.872978   88.054413
H   15.754829   53.413467   84.225349
H   38.342236   35.935516   32.228172
H   83.439560   96.988861   95.189026
H   87.207085   38.287487   17.183287
H   75.368279   37.902523   93.838516
H   79.228188   23.905033   58.829933
H   56.758389   63.556499    5.949111
H   37.174221   25.962366   73.190468
H   73.018700   34.437923   90.156822
H   80.955307   55.151955   61.284966
H   37.989311   96.485764   68.239777
H   28.751932   86.598343   43.548931
H   28.761520   15.754092   48.590149
H   97.064415   68.035912   70.107109
H   36.028435   42.557114   18.037903
H    1.782427   47.663902   92.885040
H    1.007873   31.040672   33.297798
H   60.502556   85.257568   28.224411
H   90.492783   32.484764   75.061897
H   92.004837   42.013668   56.431580
H   89.865715   24.197556   70.645432
H   58.937115   84.040848   57.297997
H    1.859708   22.431194   21.350229
H   75.079842    7.277825   64.814301
H   44.280800   67.858383   65.357330
H   30.464584   39.211090   31.922256
H   46.980186   40.471680   63.598450
H   25.738543    7.881641   48.473457
H   99.258781   64.853508    0.928179
H   42.702129   11.937435   71.960838
