100
TIME:    2.307, STEP:  2307
H   61.309235   10.457650   97.033890
H   37.096886   29.826220   23.524771
H   19.410063   39.878418   96.255211
H   81.863831   37.602562   13.708176
H   74.507462   57.673740    3.153187
H   92.243782   98.708748    7.215366
H   32.060978   17.116692   70.863258
H   38.560646   88.186920   96.372368
H   96.917473   64.484741   54.870541
H   11.796606   49.508461   98.027824
H   85.663513   59.069645   17.527903
H   67.790756   39.328522   28.713823
H   96.514595   22.130867   95.832237
H   40.852150   97.965034   32.803936
H    8.561367   63.956665   39.877045
H    8.764671    9.950498   41.540787
H   38.588089   34.562599   83.400070
H   50.444221   82.511131   19.565815
H   81.196388   75.135834   84.904221
H   30.364037   56.820560   73.403938
H   27.375977   26.548153   94.628098
H   83.554688   47.146561   22.815887
H   54.942253   75.859535   66.344269
H    4.696232   64.350555   35.736275
H   47.071892    3.208527   53.583275
H   36.080776   58.865574   72.936180
H   63.144691   46.578602   45.746258
H   37.884003   64.122673   43.029301
H   61.334290   58.400978   48.118706
H   89.454491   33.741959   66.788475
H    6.853397   28.926973   26.859200
H   11.422508   88.772713   85.693535
H   32.859264   99.691704    5.629735
H   75.577278   62.299973   74.561005
H   23.426411   84.528534   65.207161
H   73.139084   65.712395   12.709279
H    1.070748   20.048903   90.247986
H   68.636848   16.729420   85.240044
H   47.694771   31.149748   20.746683
H   45.899563   96.209251   19.543753
H   77.582649   35.342251   96.696457
H   24.281189   15.396380   11.186403
H   31.112379   77.334335   68.109367
H   32.041039   51.436966    6.300582
H   56.539639   40.867802   53.527443
H   48.324085    6.919270   92.537544
H   59.753963   50.300507   47.601913
H   56.362621   19.136068   11.321968
H   32.465675   41.383274   52.448242
H   74.271233   65.862480   22.310299
H   43.368610   46.917793   77.741486
H   17.248598   49.667171   22.611355
H   56.735970   35.385498   68.883995
H   23.269001   69.568901   33.617157
H   57.100945   60.749912   19.981825
H   96.452805   10.107403   14.091080
H   42.504993   22.979759   75.402306
H   54.272797   59.019989   54.133011
H   72.224297   36.245724   34.373383
H    6.781409    5.110777   97.994026
H    5.227626   71.284370   34.523785
H   17.032829    6.470169   90.969498
H   30.714767   49.833427   75.288986
H    1.456393   54.344002   64.509026
H   23.890171   76.588348   10.407239
H   59.622566   27.585121   82.593193
H    2.473167   28.122324   78.443985
H   21.005684   49.477295   76.490540
H   71.883995   84.020027   15.540725
H   77.122620   64.180244   96.875244
H   48.775230   38.431755   34.476963
H   83.744263   74.960190   25.529047
H   56.571091    4.194080    2.592765
H   79.420494    3.387341   66.096687
H   73.400169   31.926287   76.284042
H   80.197945   55.430733   40.697643
H   76.416138   26.591166   31.850481
H   40.367382   99.871040   41.847523
H   72.140396   46.742344   43.417915
H   86.385658   83.310349   22.170967
H   56.028339   53.148632   17.872822
H   14.419588   59.294022   93.867165
H   63.766926   45.763702   49.630192
H    8.870296    9.574556   52.710876
H   39.998184    4.579145   24.114548
H   98.192749   93.794121    1.988222
H   21.234045   35.615234   33.550064
H   93.093307   20.590347   71.755409
H    3.558546   65.722084    9.325573
H   62.369656   14.358086    6.688473
H   18.434601   98.003571   82.181351
H   48.984173   69.011040   77.480324
H   33.304981   96.759445   97.390671
H   70.208809   53.170216   82.367363
H   16.704376   43.083023   69.099205
H   84.470306    4.630934   48.289474
H   79.483688    0.074698    4.511655
H   15.335652   35.880402   19.122669
H   98.813469   46.794865   51.803223
H   82.513809   19.445946   75.488556
