200
TIME:    0.547, STEP:   547
H   18.904665   61.456127   20.589087
H   30.700588   37.360012    2.360231
H   11.703213   82.575493   60.469597
H   28.191038   80.562050   36.471722
H   11.950645   91.510117   49.244579
H   79.631348   44.482533   56.462574
H    7.807105   55.086304   55.593586
H    9.768325    2.143196   14.175182
H   99.896133   82.903755   40.230156
H    0.054263   70.598564   83.963158
H   22.894232    1.152353    2.663155
H   32.047287   50.217113   27.370117
H   18.709110   97.196556   48.709251
H   89.893250   54.502186   57.059292
H    4.799880   74.307892   42.223225
H   20.351921   13.317184   47.700367
H   98.649567   22.096827    0.526720
H   29.272226   97.925392   38.054787
H   75.239861   18.587477   47.003155
H   91.032959   75.488670   25.569881
H   61.769394   92.083427   11.775506
H   83.194420   60.548912   58.744118
H   85.811981   60.309319   41.769913
H   15.110831   90.858139   90.623428
H   16.590340   25.051081   34.455769
H   18.406961   75.960854   96.817062
H    4.840955   64.956810   61.425385
H    1.555830   82.793839    1.539077
H   23.998840   47.198311   36.540707
H   79.176430   28.988480   88.006256
H   12.960679   64.275276   16.570154
H   26.343361   70.701645    1.161540
H   19.705475   15.591489   76.929054
H   86.265984   63.912857   43.656334
H   33.255848   77.115524   31.883862
H   23.033024   42.922215   82.996841
H   95.075912   67.802849   88.259682
H   17.729647   52.696625    1.364116
H   41.708122   35.407387   51.255703
H   87.138573   38.426029   51.704193
H   80.595657   90.882545   11.714327
H   28.619982   36.669285   30.728003
H   71.174210   80.729492   61.727886
H   36.597336   78.144493   29.728096
H   39.266476   85.661705   55.442635
H   36.739559    5.848878   46.026718
H   85.759445   11.171494    2.910109
H   82.641785   65.545921   36.611099
H   98.953102   17.101940   61.387672
H   51.131195   19.186930   92.724464
H   70.905182   66.610367   15.702057
H    9.402568   40.982037   70.142113
H   60.456394   85.640335   11.941798
H   17.837500   88.662292   86.249420
H   64.204239   69.557350   80.844666
H    1.370132   64.787018   88.701050
H    4.554346   17.907204   46.361423
H   70.762741   65.716148   99.762428
H   21.703156   80.407974   14.551628
H   36.002838   94.265297   61.319023
H   49.425243    9.386753   33.266956
H   95.453819   17.152143   51.419464
H   79.905083   31.566193   74.527603
H   31.564356   65.590332   10.521931
H   76.283440   80.655777   30.483337
H   26.696896   28.488316   38.381577
H   74.707619   16.686323   92.177864
H   95.622231   92.147911   93.349625
H   27.442520   10.001912   58.094055
H   43.469757   46.980797   50.966198
H   58.330486   81.901955   81.493179
H   23.512331   15.752295   42.615837
H   87.237442   30.970577   89.215736
H   17.867008    2.216619   69.510109
H   82.883224    5.841195   53.177589
H   61.073547    8.238171   60.871357
H   94.129990   41.379078   67.803093
H   15.184350   11.560242   37.469688
H   13.864586   43.370941   28.138981
H   63.650108   88.954781   79.702362
H   56.397892   24.913437   96.575912
H   40.135635   63.069427   78.366539
H    9.801958   17.033833   81.297287
H   14.662815   71.898369    3.857366
H   27.975887    2.570238   49.082005
H   33.316372   75.032883   21.392063
H   49.614613    3.423829    2.475150
H   72.778465    7.118161   23.021559
H   75.082382   72.804466   78.276428
H   21.906460   99.807724   51.488018
H   28.373636   37.543022   79.388969
H   81.916977   91.229019    5.066505
H   61.843552   13.399706   86.986305
H   46.261444   83.404114   77.534332
H   32.903946   52.773438   80.725983
H   56.558479   34.573185   14.627169
H   83.470070    3.660642   11.550895
H   98.455185   33.209087   51.500271
H   30.061501   66.702690   53.969212
H   72.542358    2.915883   27.325357
H   23.563444   88.914612   83.396004
H    1.988158   81.301201   64.171173
H   29.543219   25.950382   34.792831
H   36.627632   68.506302    2.353766
H   24.931778   23.438251   35.040817
H   99.576904   11.742245   29.517609
H   80.201172   33.908752   54.830475
H   62.942314   46.061619    6.870417
H   80.598511   36.214443   13.977604
H   14.228667   23.779974    7.039801
H   51.233707   93.398987    1.011848
H   98.321083   71.065369   94.008102
H   51.761967   83.837181   87.257690
H   62.184227   12.778807   67.037262
H   53.605370   94.752426   16.008383
H    1.509658   96.816490   92.783958
H   19.952694   12.765577   87.759018
H   39.213535   42.107338   27.841881
H   30.521347   69.239693   68.366730
H   78.884384   52.802120   60.795063
H   43.758736   23.799511   77.459976
H    5.042681   20.207424   57.218609
H   39.637825    8.874591   33.136375
H   99.554161   56.271374    4.421209
H   67.730171    1.350890   82.659592
H   58.969707   70.751877   19.603802
H   87.755669   50.623367   59.198425
H   68.713516   89.977776   37.595417
H   96.245728   41.370987   77.894043
H   82.625343   22.694239   71.731796
H   61.001663   74.224091   15.143543
H   69.916275   89.096268   16.566799
H   91.435280   97.531097   99.658821
H   85.867088   20.874184   53.485691
H   19.592175   95.819077   42.309669
H   54.181374    1.232844   79.158768
H   69.400978   87.346825   70.621674
H   93.836952   54.635399   78.347626
H   54.337692   48.626930   71.477478
H   43.614243   94.366158   86.927109
H   65.816353   54.040562   24.826889
H   43.105316   50.338734   53.403557
H   45.136539   62.411606   89.029274
H   43.645683   15.414849   83.211739
H   54.732380   59.585426   59.107319
H   57.188663   67.264923   15.142857
H   51.992149   95.433357   45.083717
H   34.269623   61.990982   67.063622
H   73.392426   51.974529   94.892540
H   19.248182   92.026520   78.508324
H   65.399147   66.523743   49.026566
H   46.710590   98.615036   38.531643
H   90.437553   20.359348   92.687675
H   18.025331    8.189477   68.366058
H   25.786247   61.986649   66.307312
H   72.615692   44.290127   63.505978
H   62.524792   70.090477   84.390915
H   50.410801   31.734200   16.916517
H   98.330978    0.577573   91.219559
H   60.237778   44.417603   90.022461
H   56.971561   71.937042   75.253235
H   29.189945   21.465345   32.884380
H   78.434181   21.184832   37.104401
H   22.543583   29.198395   58.064129
H   56.014694   32.505405   12.841037
H   17.203024   54.671051   60.623619
H   69.613434   92.601448   55.476219
H   23.900398   44.900417   60.707569
H   98.244461   27.171837   36.132015
H   40.482967    8.142962   86.946228
H   73.500061    9.284760   35.950310
H   35.557350   54.044140   58.400860
H   43.604626   64.262833   81.785904
H   67.445587   67.194778   81.361977
H   57.169037   92.727112   84.796295
H   10.385795   49.319145   23.581280
H   32.263939   62.511387   99.750381
H    4.450873    9.493637   68.805771
H   67.750435   14.242735   65.544212
H   71.696762   57.748268   90.715775
H   75.812874   96.190842   34.581371
H   25.419922   30.480801   80.823708
H   51.500114   89.844383   12.148872
H   58.166515   25.788475   88.484489
H   89.493034   75.018837   77.132034
H    5.687360   38.814270   85.490700
H   42.041901   99.265945    6.067532
H   75.672066   80.228584   36.268803
H   97.727730   62.542435   70.052063
H   55.196262   56.603306   69.581741
H   62.486107   20.867290   77.109138
H   45.136196   93.272202   20.714045
H   10.919647   24.827665   64.838882
H   29.740120   75.783302   39.500267
H   74.359283   40.542786   20.812056
H   76.077652   11.136764   25.360323
H   11.501943   93.930519   13.828778
H   19.987373   91.304688   38.308681
H    7.819395   12.470905   64.286949
H    4.805769   24.591677   93.483604
