200
TIME:    0.426, STEP:   426
H   15.186625   61.857700   18.520061
H   29.622110   35.593552   97.448036
H   14.239240   77.279343   54.509697
H   24.112301   79.147774   39.635841
H   13.235333   88.443390   50.984268
H   83.567688   47.766663   60.043961
H    6.054030   55.172157   53.251537
H    7.056783   96.918304   18.470119
H   94.982170   84.717758   43.181950
H    4.313675   72.293480   88.735878
H   18.676790   98.567574   98.839447
H   31.546936   46.987450   21.604773
H   15.739314   93.180824   53.668449
H   95.612206   53.991680   51.228634
H   10.641763   73.376427   42.520943
H   23.878841   18.302692   50.310593
H   92.957382   16.429798    6.401459
H   32.145332   92.108582   40.208973
H   71.213974   22.968086   45.221924
H   90.648003   77.150352   30.260441
H   60.317268   86.043213   17.318974
H   85.888191   55.923897   63.406982
H   89.435371   61.189087   44.673241
H   12.547917   89.754967   91.002846
H   11.331014   20.184660   38.773373
H   18.507124   70.590851    0.813406
H    2.497676   62.528904   56.560349
H   98.778839   77.802330    1.220688
H   18.902554   50.876167   37.249229
H   84.644287   25.747046   92.191849
H   13.118654   59.220066   16.422218
H   28.543705   67.865707   98.182457
H   22.629112   12.987841   75.451080
H   90.270638   63.780846   41.541382
H   39.062504   82.115341   32.804279
H   26.985519   45.681068   81.609337
H   91.602997   70.414459   87.351295
H   23.714703   49.566662    6.804523
H   46.186356   39.740223   48.566086
H   88.298981   38.923611   56.430756
H   80.559654   96.535034    7.698022
H   22.597307   39.206581   34.315933
H   73.352859   83.509117   57.234882
H   36.866898   72.267677   25.400568
H   35.132118   81.970001   51.076103
H   38.442322    8.997881   44.710758
H   83.479248   17.099640    0.257370
H   85.587578   65.547768   40.961014
H   94.273621   21.693722   61.300434
H   55.461262   18.640882   97.843369
H   73.783585   68.141884   20.497387
H   14.027929   38.899395   67.540657
H   57.192562   89.099449   10.361456
H   19.638348   86.108841   84.457573
H   69.325912   72.248352   84.757927
H    2.921267   67.767891   84.738861
H    4.899664   17.449318   47.659382
H   69.440781   62.903294    1.946370
H   24.256376   78.070541   11.625106
H   38.801388   94.944740   63.555832
H   49.817123   11.747496   36.802185
H   93.278862   16.865503   50.491692
H   76.571564   29.059591   78.609802
H   28.632641   65.417702    7.820316
H   74.338348   78.851929   25.535448
H   31.443537   23.787371   36.206619
H   79.227394   19.238621   89.677956
H   96.299828   91.872810   90.954033
H   23.138533    8.366771   59.625572
H   44.166279   44.871845   50.972660
H   58.383568   79.809158   78.256592
H   26.913010   18.932791   43.462833
H   83.397110   28.878704   93.267471
H   13.924958    4.876291   65.987343
H   81.409866    3.882487   58.867004
H   58.015129   12.509963   61.662041
H   94.641418   36.874535   69.514626
H   19.666023    9.356897   41.607277
H   12.944660   37.980167   30.818905
H   65.473434   89.629608   85.440704
H   51.262371   26.958460   98.372375
H   34.815022   65.245506   82.107170
H   10.274037   15.706565   84.837593
H   18.608618   67.941719   99.913788
H   32.284721    1.290714   52.511070
H   29.907475   79.266479   23.910896
H   44.191528    3.171692    2.197742
H   73.784706   11.621666   18.457703
H   71.378677   72.509979   77.840698
H   22.512512   94.384178   52.819210
H   33.445755   36.498470   79.927170
H   82.759819   90.167389    2.426334
H   56.095516   14.764362   90.432449
H   51.687298   87.751259   74.211891
H   29.837978   54.410194   75.686470
H   61.569374   31.867874   20.316324
H   81.828697    7.845829    6.339772
H    1.781439   31.328995   50.354633
H   32.803276   67.914795   53.540405
H   70.438484    0.949855   27.295816
H   18.164824   85.569092   77.698280
H   97.488838   79.470581   64.838615
H   27.035002   30.372534   33.102070
H   30.813543   68.282898   97.548615
H   25.092176   25.028389   31.117863
H   94.786644   17.666372   35.182663
H   74.469292   32.406315   55.393600
H   63.655453   41.415833   11.549307
H   77.523476   37.741806    8.126637
H   10.341716   25.467043    6.447596
H   49.641724   94.450462    0.926715
H   93.462509   68.022644   92.629829
H   53.863533   82.433060   89.889610
H   62.594109   15.387417   70.157532
H   57.643257   89.713837   20.250980
H    6.447724    0.355922   87.325333
H   24.927586   11.061776   86.348434
H   39.827435   36.151592   30.260551
H   25.926104   64.696838   74.346939
H   75.691185   50.387142   56.281288
H   42.495857   22.995441   81.424934
H   10.263561   23.073826   53.659378
H   36.720650   13.977917   29.546839
H    1.336877   60.625443    9.719975
H   71.350792    4.346797   86.661476
H   54.536709   67.441437   21.940081
H   90.763313   50.058395   63.871445
H   71.360207   89.028770   36.573483
H   94.756676   45.750904   80.651512
H   76.760529   23.267750   69.670387
H   56.117241   78.544464   10.519451
H   74.560677   87.896164   13.713323
H   91.830391   91.644127   98.758743
H   91.800217   17.771915   51.996639
H   13.614688   98.006958   47.869843
H   57.404114    1.388137   80.941383
H   69.200653   87.038490   64.598076
H   92.804863   58.413418   80.259483
H   51.174957   46.934784   71.506096
H   43.548698    0.169136   90.289246
H   59.825985   57.598869   20.918243
H   48.675644   46.662262   50.582851
H   49.026260   60.184490   93.110550
H   49.190163   19.794783   81.206642
H   49.044811   63.598389   55.150669
H   52.755203   65.180435   20.937973
H   49.130363   95.963249   45.950100
H   37.573601   66.495064   67.757835
H   70.157684   57.026505   96.095413
H   15.391022   90.705482   83.036407
H   69.664131   64.468796   49.940029
H   41.617073    1.963170   42.323509
H   84.816452   24.883739   96.935120
H   14.826782    5.412098   71.356163
H   20.988140   58.791142   64.118507
H   69.023689   43.990101   59.783348
H   61.258221   66.461548   82.958176
H   48.690498   33.675598   14.081734
H    3.868952    1.033490   95.707024
H   61.594357   49.354645   85.378983
H   55.782997   76.852852   78.470436
H   34.871166   22.092400   33.932625
H   73.225731   26.460442   37.154713
H   18.102045   25.643780   63.240730
H   57.173256   28.399664   11.652126
H   15.118304   58.521076   61.285061
H   71.696999   94.558540   54.193493
H   23.794697   39.395172   55.704060
H   96.600319   27.565332   36.417732
H   34.961105    9.056079   88.308807
H   75.811646    7.845790   35.960464
H   39.737404   58.538528   58.029289
H   41.266731   69.462051   85.190506
H   68.935562   70.088875   78.554657
H   62.792908   93.637344   90.485710
H    6.650010   48.665550   23.465193
H   33.506969   58.731522   94.688713
H    3.378470    9.378242   67.258560
H   70.844856   17.055666   66.959412
H   77.452644   56.450310   89.008858
H   78.021988   91.854774   37.394691
H   22.979326   30.333096   76.406403
H   57.071827   89.972687    9.751443
H   55.531364   25.564610   84.033028
H   87.928284   80.266983   77.630539
H    3.154276   37.793259   84.885109
H   37.828613    1.338532    3.386447
H   81.485184   75.103218   32.034744
H    1.231953   62.002850   68.669174
H   52.995918   57.261517   68.052994
H   56.705761   24.870560   77.973213
H   46.128128   89.983917   22.255255
H    8.231992   21.949032   62.066963
H   31.853918   70.954269   37.061749
H   78.511642   45.947407   21.207859
H   75.782242   10.839853   27.018082
H   10.697642   90.631157    9.744733
H   23.503908   93.709511   41.721130
H    9.432958   12.132338   69.698494
H    6.067782   28.691185   95.164673
