100
TIME:    6.106, STEP:  6106
H    4.398851   62.070854   93.555801
H   31.841400   35.739285   63.109791
H   84.720367   13.194179   51.669697
H   82.501480   81.082672    5.471488
H   40.480164   62.180252    0.147450
H   33.333065   94.593010   83.444176
H   32.955151   73.644783   67.950233
H   39.966736   16.849010   47.561733
H    3.530791   99.226273   15.735597
H    7.983805    4.056782   46.792332
H   32.289780   11.930603   51.588196
H   22.791435   29.752659   58.297173
H   54.430344   92.348045   18.298759
H   52.748024   86.255470   21.909115
H   54.769325   24.614830   57.263912
H   56.015045   77.675880   26.189888
H   33.099007   85.835243   29.241613
H   31.640936   97.721283   87.859901
H   40.369457   34.507805   85.049896
H   28.011101   76.143593   32.057457
H    1.938028   48.346272   91.516289
H   47.768509   52.189789   99.296005
H    4.218718   44.962517   57.650803
H   51.723042    9.873751   53.589428
H   11.199138    1.922569   81.634071
H   18.711729   46.151489   16.236969
H   35.551498   88.657791   21.118818
H   17.335506   41.447136   68.606979
H   43.940208    3.076372   68.538300
H   35.123554   39.716423   68.798111
H   56.366539   69.591606   26.291649
H   51.293766   83.809265   34.001030
H    0.454860   21.738153   47.873657
H   36.095406   14.144166   14.515310
H   28.993237   97.352333   96.540894
H    3.422074   63.676888    0.228942
H   65.442940   80.920044   89.594337
H   11.621265   47.212032   53.324070
H   87.335876   48.376701   52.595375
H   88.076416   40.560093   18.441412
H   17.949776   65.692177   86.200417
H   85.633484   65.547821   91.681877
H   63.835392    0.115856   42.516693
H   89.455246   15.131857   77.747765
H   27.005817   90.981003   78.617050
H   99.308311   79.379440    7.967497
H   89.437790   56.903214   84.076897
H   56.565510   58.259796   46.382587
H   43.513290   26.751053    0.902055
H   53.939068   23.668577   56.601318
H   43.082325   80.148438   17.793930
H    1.873308   97.147980   73.215187
H   35.529209   57.413391   48.242519
H   35.290489    7.575562    1.258162
H   54.626305   93.705307   52.283680
H    1.200775    6.110804   84.764145
H   83.345573   13.360841   36.718941
H   71.390289    0.250813   56.279160
H   71.843262   96.762016   42.724419
H   56.084671   97.114761   89.941429
H   44.872120   94.615128   38.323856
H   82.204048   71.108292   19.076134
H   88.596855   90.620277   14.763702
H   62.329025   75.025085   61.364979
H   74.681641   73.168869   64.194237
H   26.244919   38.725639    7.217931
H   97.672226   59.460384   61.860001
H   58.582588   66.745949   58.104710
H   61.226116   11.048103   77.275574
H   54.089874   55.257393   88.875641
H   28.140182   79.948654   88.902779
H   70.498672   48.878784    3.674119
H    8.868305   16.279251    5.188057
H   95.794273   62.968960   40.355247
H   56.564526   37.346111   64.274307
H   70.010201   98.909599   85.072937
H   21.339825   97.318214   99.035591
H   18.851315   51.464714   51.652351
H   54.316471   35.583477   85.806694
H    0.081580   76.396767   94.883904
H   30.357248   92.451035   44.929996
H   99.485214   84.069061   76.174004
H    4.092009    9.232619   11.447525
H   70.231682   34.663109    5.728954
H   55.017845   66.952583   55.844147
H   10.759144   33.337044   65.802368
H   74.960655   59.396843   14.701147
H   54.230278   16.465017   32.268066
H   82.399521   54.199699   78.251595
H   26.485983   58.060345   42.491531
H   73.905327    3.138789   62.409344
H   30.081064   54.708725   49.868263
H   76.859894   10.728696   91.190933
H   37.388767   83.617134   38.517151
H   51.023201    2.790549   56.395237
H   98.252121   54.612091   52.066147
H   77.936913   18.091166   86.027496
H   26.491335   88.583511   56.301903
H   17.837097   63.170864   33.595779
H   18.478876   21.945408    9.529674
