100
TIME:    0.899, STEP:   899
H   56.526527   39.578377   98.322952
H   76.262901   53.488522   34.708828
H   95.210510   38.581264   12.784134
H   81.627502   95.610374   90.885857
H   87.118790   44.816338   41.329079
H   14.075771    0.235212   67.777367
H    5.854617   22.042006   60.755741
H   49.226669   66.375870   25.650642
H   31.528862   99.858093   43.498512
H   50.272301   29.292385   42.894806
H   16.632233    2.415878   53.152695
H   21.527439   68.752953   28.936789
H   86.076828    7.316620   35.775749
H   10.568542    2.305444   25.654247
H   91.436119   89.722351    7.557531
H   65.377365   33.103939   58.415512
H   51.788277   41.449295   55.206871
H   20.355354   50.982346   68.379684
H   59.263161   16.066568   10.726389
H   68.314278   86.683441   77.519630
H   10.928604   66.719940   32.844048
H   48.549854   45.286514   42.707630
H   73.741081   87.310707    6.627918
H   35.514709   47.463840   40.307442
H   97.431267   14.877041   43.195580
H   42.536831    0.823097    4.910254
H   84.557236    5.105866   17.805830
H   56.685196   98.401474   96.488937
H   30.719055   30.655973   14.676266
H   35.464260   68.589615   54.856350
H   51.465855    2.660903   38.272362
H   22.520422   27.674103   16.039116
H   33.681850    2.707597   78.785973
H   16.087044   91.334816   33.877052
H   58.425774   90.962532   79.471024
H   50.719727   55.106091   17.551001
H   66.023918   71.612648   79.303047
H   26.833794   42.499928   85.881401
H   10.303934   61.316994   55.962738
H   78.517235   28.021605    8.765131
H   73.804016   87.028404   63.524426
H   50.824181   52.206696   45.036594
H   18.984449   68.890976   66.407722
H   21.951956   27.837328   68.632698
H   78.673409   96.421921   33.037842
H   66.469765   80.104301   86.843727
H   45.572681   74.237671   35.305122
H   56.287426    4.639486   24.202925
H   91.309868   57.993095    8.611800
H   44.744694   44.432751   20.787933
H   43.476032   82.850685   62.895786
H   48.822212   80.318863   15.043610
H   27.527964   27.221436   50.658104
H   55.871540   92.535698   71.487076
H   69.191376   37.315884    8.034721
H   94.691086   11.587139   62.022720
H   53.243347   63.606712   41.489891
H   59.117126   91.987953   90.398636
H   61.178001   76.753281   42.466854
H   99.694962   96.887131   38.039879
H   16.410109   36.763367   44.302101
H   67.003876   19.577591   54.679382
H   35.211334   45.848778   71.883156
H    4.771495   46.684822    2.730497
H   68.006874   89.042442   79.283745
H   46.118263   97.581215   99.341759
H   15.440123   79.442505   10.465717
H   18.265892   68.951828    9.179999
H    1.706937   85.189926    3.847769
H   48.597168   93.360008   99.840088
H   93.484215   34.233822   51.365330
H   99.841019   21.689629   22.441774
H   48.375610   73.837196   38.697231
H   10.403737   92.488937   49.778358
H    5.517070   29.922869   69.548149
H   46.913136   65.191551   35.438526
H   48.578716   48.626823    6.941584
H   74.216980   91.937279   64.090240
H    4.642685   50.868992   27.712627
H   55.436905   59.994270   43.471466
H   28.474628   38.582226   33.719189
H    8.775387   50.098709   11.603773
H   74.678261   22.262022   15.525038
H   12.012239   89.090187   81.316353
H    8.555279   92.650497   60.604485
H   30.601002   42.076679    4.212467
H   27.196905   37.988304   66.410873
H   70.427292   33.317711   86.396080
H   74.339302   44.116890   20.845013
H   86.853134   72.292236   56.351528
H   60.813328   21.975599   52.446972
H   44.803852   63.119423   50.651688
H   42.965065   54.566536   88.463707
H   34.119629   67.765053   87.433449
H   41.049549   69.203461   36.743736
H   68.175293   60.230400   21.014641
H   91.244247   19.271971   85.486588
H   10.165975   23.892120   41.652107
H   65.885765   40.725529   69.745583
H   95.072372   55.613026   11.099228
