100
TIME:    5.155, STEP:  5155
H   68.710854   49.281532   94.426468
H   58.106483   84.205734    3.144315
H   68.366348   44.774979   62.835995
H   82.341858   20.264530   57.601166
H   48.998184   85.953491   25.931122
H   48.083607   95.623299   89.263084
H   82.796288    9.427145   93.580719
H   14.713463   34.574818   34.879009
H   26.908195   90.661072   75.598793
H   33.966713   90.401527    9.552572
H   20.749481   73.665222   43.193668
H   59.090973   82.084267   25.990183
H   15.115768   49.857597   12.795166
H   99.836571   89.186714   49.538597
H   43.203972    9.562253    2.975292
H   94.251816   60.853897    5.130755
H    9.572701   22.934322   42.668335
H   11.304036   43.992802   20.826864
H   25.559292   94.610672   34.947247
H   53.630463   96.343056   67.308998
H   58.371712   43.021187   17.329098
H   56.595215   50.927322   80.282425
H   16.917351   52.696938   84.859131
H   40.084187   98.497040   24.217625
H   45.211212   77.342773   74.610695
H   23.046923   74.264114    5.665423
H   17.557081   28.189228    2.248168
H   97.578377   97.057693   37.169724
H   23.261879   16.794039   13.492775
H   98.659576   63.253441   93.196693
H   18.936401   84.314240    1.531746
H   91.247169   10.086513   22.039848
H   33.468243   91.318382   62.200066
H   95.911972    1.297825   54.578896
H   52.632294   69.241592   38.631340
H   20.752893   89.190102    3.219786
H   74.230011   15.748291   14.659011
H   50.925259   64.617851   86.215630
H   27.477985   69.098564   44.754227
H   77.649574   29.589188   43.619259
H   82.944244   33.063576   63.795269
H   68.318443   43.217308   44.983715
H   55.643871   94.412949   73.824226
H   50.178623   99.169250   84.764572
H    9.498014   28.501953   97.237328
H   11.580511   61.240559    4.103469
H   82.008102    5.183793   74.949409
H   56.514721   48.464798   87.540138
H   15.717262    5.513448   38.839058
H   33.993549    9.193747   23.116989
H   43.151325   71.961426    7.768893
H   55.655571   85.394058   35.646027
H   15.801375   51.899170    3.474118
H   57.311096   23.094208   59.292137
H   30.346630   10.364156   44.193737
H    0.016210    7.111163   17.138443
H   23.056847   40.801521   46.270897
H   42.203262   90.061272   80.773911
H   96.841347   56.580582   15.730469
H   18.842579   24.018337   16.990120
H   84.881744   38.840580   12.472188
H   15.955332   79.960068   62.108826
H   24.032892   55.515305   79.976624
H   97.023781   69.844620   87.180984
H   36.933044   49.123272   75.631630
H   84.666283   86.002831   50.987160
H   73.973083   26.584869   15.945583
H   24.274818   12.357001   12.641410
H   13.825666   79.380913   36.920258
H   34.826378    7.423074   90.878174
H   58.338264   44.654129    0.308582
H   48.913353   80.440445   34.046486
H   70.875626   63.317009   29.573975
H   16.728092   23.159405   96.861504
H   10.715203   35.989323   92.181610
H   47.527176   37.959846   49.062809
H   34.995327   79.745552   82.217216
H   74.171600   13.647163   99.129967
H    8.715024   38.376865   75.199074
H   46.714294   28.200703   76.813416
H   11.747166   82.612503   88.091545
H   28.111412   77.893631   55.719749
H   43.940613   93.329163   20.879545
H    4.806147   53.283737   92.587769
H    1.322864   26.436386   48.032921
H   32.649151   98.405205   99.761902
H   11.445532   28.542435   69.353806
H   38.932892   92.573257   42.133759
H   62.664413    7.150455   86.029549
H   10.567012   97.183395    8.497152
H   34.986534   51.785954   42.325970
H   59.716694   83.184784   31.751143
H   15.898732   82.197182   17.648640
H   45.478569   25.921129   74.392906
H   67.464287   87.975914   34.541508
H   19.703491   92.166840    1.186289
H   53.422539   63.515560   40.720398
H   25.787413   60.129425   73.542686
H   63.140778   59.071476   13.251213
H   59.406521   46.347332    1.142555
