100
TIME:    8.335, STEP:  8335
H   53.659904   57.661858   91.515091
H   70.284164   56.526844    3.652970
H   23.041925   73.557343   25.499699
H   82.875610   89.247734   83.293282
H   20.510321   40.844257   39.708420
H   98.762573   92.178169    4.188632
H   16.133194   24.156763   42.261021
H   64.771729    9.685937   42.902122
H   48.737663   84.916336   75.429413
H   47.101509   36.063251   34.069679
H   24.953629    1.619581   36.880249
H   37.718040   41.480953   99.635185
H   12.254488   57.478821   96.798004
H   42.381477   79.385078   91.536781
H   81.842903   25.509537   50.069870
H   66.390945   82.719322   41.163361
H   53.855934   33.266155   32.156288
H   79.303070   89.258003   10.594696
H   75.083969   28.016636    2.483292
H   67.954117   28.811182   83.818184
H   69.666008   26.441639   31.018358
H   61.464909   55.148819    9.475998
H   74.457939   26.836630   93.875397
H   44.616432   36.539032   88.044373
H   31.476078   25.152939   98.095802
H    8.307201   80.387680    6.521227
H   43.342743   96.000137   65.350693
H   29.258902   45.489323   42.283615
H   92.407082    5.308665   63.172050
H   20.594006   84.547989   45.996887
H   44.090740   69.470482   49.940407
H   92.034386   22.225361   27.651344
H   57.464031   58.653984   48.679581
H   30.276211    9.869673   20.610819
H   73.520531   28.593529   32.160450
H   97.185364   38.263100   93.222389
H   79.233574   99.288338   65.230736
H   19.491825    6.415829   10.619834
H   93.248131   99.813377   36.588570
H   78.129150   31.888273   93.814880
H   65.613312   42.175613   38.713467
H   97.785385   74.288864    5.477721
H   83.018219   13.486998    3.519875
H   47.125454   52.547142   95.687653
H   33.656517    3.038099   69.359673
H   70.534294   21.890186   17.023149
H    6.856030   78.123543    5.473798
H   56.696346   81.217789   84.300133
H    8.672615   42.145027   11.986753
H    0.735392   57.597469    0.748671
H   42.929272   64.953056   41.290970
H   10.209450   90.312698   26.895943
H   81.761772   70.337891   18.788324
H   83.672150   71.214233   99.617752
H   77.149635   89.044357   71.238785
H    3.976991    3.766112    8.883728
H   24.655037   49.043633   48.715355
H    5.414834   89.749077   98.863548
H   47.639019   90.951637   71.608932
H    8.995639   68.444946   26.543358
H   85.478531   90.955566   64.532600
H    3.092494   50.361069   18.221790
H   39.923794   38.517975   61.914490
H   15.388897   87.167313    0.841732
H   63.155693   95.141052   71.771118
H   89.316811   27.915672   39.014606
H   18.835890   36.525013   69.475876
H    4.610228   94.224358   64.663803
H   72.318512   50.886391   37.476357
H   99.304253   67.288162   84.165207
H   57.357327   28.287342   62.169472
H   86.900314   74.845116   66.997055
H   63.533600    6.028990   48.041813
H   46.721180   21.898083    7.916615
H   63.976425   40.588055   33.266850
H   22.700823   41.768341   35.089806
H   23.778782    4.384256   38.564430
H   23.571379    5.718945   74.754272
H   61.204933   29.036198   10.674862
H   90.769524   54.972679    2.853581
H   73.986656   15.511758   78.154495
H   66.746902   98.524231   89.697990
H   45.082047   46.508823   23.726185
H   23.584435   25.403368    2.144520
H   46.485352   27.516560   39.768166
H   59.464542   15.211497   20.591080
H   23.830660   97.329750   20.988274
H   90.078758   38.099091    9.157021
H   28.660522   30.092302   60.021248
H   29.412561   66.353653   22.173666
H   65.125237   23.497272    9.482078
H   95.004494   22.350967   92.343391
H   19.742908   77.609520   63.562927
H   52.810654   18.847645   88.815071
H   12.483479    3.130316    7.616429
H   82.358398   66.591919   36.935478
H    1.009608   46.007179   57.835274
H   22.188837   98.876381   11.555441
H   11.652785   72.794746   46.894367
H   56.928967   64.741043   94.802704
