100
TIME:    6.569, STEP:  6569
H   73.087723   19.611807   93.131912
H   19.055843   60.829990   92.301735
H   92.682419   46.503807   46.233318
H   82.579193   62.007660   80.094116
H   36.333115   99.291748   87.593277
H   26.151676   94.091408   29.295998
H    8.689597    4.907087    4.157464
H    3.575851   56.903004    5.049411
H   92.149315   54.710846   86.591789
H   95.336678   10.705399   64.920662
H   89.222656   30.560339    6.990532
H    5.118790   52.960590   25.340149
H   24.885269   64.350166   72.292656
H   29.822853   84.828377   57.144901
H   60.393074   83.257378   34.999271
H   37.399246   37.180336   87.756348
H   95.867104   16.459782   71.390327
H   41.542278   75.191574   71.808632
H   47.579105   53.932526    9.443461
H   15.538162   66.309364   63.580681
H   74.462952    2.251904   78.947975
H   92.156769   52.804428   59.867249
H   98.036583   41.196968   44.404266
H    8.702782   15.412569   19.202078
H   94.639839   65.206512   85.053444
H   16.601114   32.463402   72.697227
H   95.626457   69.413223   30.306616
H   78.268204   63.058418   83.909378
H   54.007576   45.082836   46.651489
H   52.877445   28.257286    5.605600
H   74.588188   11.110909   89.660637
H   80.527985   71.014877   91.138847
H   33.068310   87.863380   89.584351
H   55.657890   71.713089   95.010513
H   17.472061   62.304573   24.714128
H   43.669323   99.940605   98.773476
H    9.851926   63.964478   26.076696
H   92.484245   38.737782   85.997704
H   67.794586   38.288139    7.727660
H   44.466869   97.215103   54.870495
H   86.307343   81.580956   97.108498
H   46.614487   67.363480   15.319497
H   67.820099    2.893362   75.959282
H   59.889469   22.903158   23.017977
H   86.843513   72.711380   18.237368
H   93.331474   88.210464    9.848505
H   93.054977   82.082230   88.520668
H   56.590237   63.028549   75.030426
H   57.045952   88.405617   82.434494
H   63.656620   30.717493   24.227095
H   43.050533   35.449326   22.673954
H   24.377762   54.185867   42.822334
H   45.133831   60.098022   21.350985
H   24.569626    0.020614   21.687859
H   17.761395   34.280502   56.222317
H    1.777441    5.623773   69.002533
H   12.698747    0.000450   80.753960
H   36.913971   56.526634   44.353745
H    8.360702   16.326725    7.181104
H   25.532860   32.703419   76.772606
H   74.078087   73.081558    2.225824
H   65.771278   66.798752   98.126266
H   20.029448   59.026405   83.014404
H   94.120895   77.547226   48.793133
H   93.057236   36.188946    7.311126
H   97.803558   15.708469   34.594391
H   60.525406   75.468262   84.213089
H   26.600151   93.224892   80.238785
H   84.300240   77.779892   48.237247
H   63.468422   78.544365   87.900696
H   13.436682   48.446625   83.349831
H   32.323322   33.512802   37.573181
H   78.679901   93.377625   93.317688
H   85.599739   33.667622   12.846071
H   78.888176   38.006672   99.372330
H   80.953606   28.583656   53.918228
H   63.388271   57.237949    7.243801
H   40.603893   21.189062   77.221642
H   76.519661   34.223499   90.971077
H   77.375259   51.175362   54.995934
H   39.417877   97.240982   72.602890
H   34.229660   87.071747   37.442020
H   33.379158   16.974890   55.542503
H    2.086831   74.282616   63.439404
H   32.474007   37.990715   10.961449
H    0.102190   50.345596   97.954361
H    5.883425   25.732979   36.778709
H   61.676598   79.416321   27.467522
H   92.007675   28.420420   74.464851
H   85.550949   39.010059   59.040871
H   92.853172   28.139339   72.187057
H   64.338379   89.531219   58.688690
H    6.539097   24.621662   26.995432
H   82.135231   11.706519   69.736588
H   43.018761   61.319611   67.034851
H   36.494080   36.328339   28.151733
H   41.185722   44.661026   59.400192
H   25.597635   11.493711   47.008133
H   95.781212   65.168739   94.813942
H   47.236225   10.064148   64.928841
