100
TIME:    4.251, STEP:  4251
H   29.844025   32.182892   95.254105
H   83.073524   35.219383   46.145363
H   52.825531   79.738197   73.444298
H   82.190125   57.509270    7.150565
H   57.095230   13.493899   50.442108
H   62.105152   96.602669   99.736382
H   30.175850   48.386265   22.886744
H   85.766075   56.366581   17.880756
H   49.130241   77.577026   32.501301
H   58.671669   77.421425   74.155609
H    4.837357   37.290592   30.271976
H   93.590614   36.771156   90.338615
H   72.802048    4.523281    2.621362
H   44.596046   91.973091   80.743256
H   32.210197   90.311188   46.431240
H   30.601627   39.921135   80.170837
H   82.266945   63.139874   60.373650
H   91.977379   87.974403   52.166523
H   11.479122   56.689789   87.321701
H   77.987633   15.541418    5.760448
H   12.016342   33.016972   41.863693
H   69.927856   49.727249   57.266357
H   28.987053   60.049110   10.723496
H   24.077568   87.665741   91.356445
H   77.544220   49.034630   67.934425
H   27.167864    0.983221   90.673820
H   95.510139   65.770157   84.315285
H   73.854187   54.862015    7.285645
H    3.604428   34.775631   56.224922
H   63.995392   85.627220   21.330750
H   83.359245    3.251438   73.053352
H   34.167828   35.060860    5.727677
H   69.793068   57.458778   80.760605
H   57.716537   84.144012   92.663979
H   75.102631   37.577202   83.584534
H   42.169529   18.385777    6.063726
H   87.525162   48.855453   43.427418
H   88.290642   81.156792   22.423130
H   65.638641   88.796318   32.358376
H   62.795792   14.218614   72.494995
H   44.725647    2.047748   42.497417
H   49.565475    2.644140    2.517419
H   47.857189   88.991928    8.528507
H    7.904255   84.012756   96.375244
H   87.912788   64.166229   19.880339
H   23.243946   43.998127    0.428589
H   74.945602   56.021873   66.273018
H   56.466442   39.153885   31.605690
H   89.291916   80.381622   74.901245
H   15.033771   95.436577   86.343971
H   43.220295   59.236961   98.238678
H   11.723448   69.279068   94.990875
H   97.050774   46.657471   55.978901
H   78.248100   37.846832   19.401138
H    2.323487   31.135675   36.503613
H   98.885178    8.062140   47.912735
H   65.745300   66.885872   60.292931
H    9.517493   75.433052    4.058468
H   25.544165   18.383919   85.131798
H   78.496170   54.534992   42.702034
H   27.857325   80.880394   82.954292
H   48.038322   88.374374    3.008617
H   62.662106   17.202351   41.966637
H   34.947800   64.920181   11.723705
H    1.050907   21.323315   91.445869
H   40.199379   30.942909   97.536102
H   46.503098   95.331390   72.300400
H   86.720009   60.656570   69.424980
H   68.772934   44.336578   93.616669
H   16.511999   61.957207   92.781738
H   87.043465    6.161509   11.153576
H   23.453049   10.442658   67.861229
H   29.818811    8.035633   52.754700
H   36.629406   80.368355   50.573784
H   67.127449   34.699589   23.652864
H   26.153460   80.022545    9.891653
H   52.918762   58.098888   66.230034
H   31.700039   72.759026   49.207634
H   65.361809   41.032200   65.115700
H   91.048035   77.436043   54.693748
H   94.059525   73.260208   34.060665
H   60.283730   71.989822   31.311979
H   86.757362   78.215118   34.786785
H   42.611885   75.926216   75.153244
H   45.341278   82.982353   35.665558
H   53.457317   65.203178   36.985657
H   51.069405   94.270584   26.247725
H   24.382086   64.948906   51.534332
H   43.904648   57.483162   93.423103
H   90.492935   34.378250   76.179092
H   97.990997    2.974106   23.235147
H   92.827377   15.198011   14.527624
H   57.950829   55.069313   47.740887
H   58.103916   71.088470   13.442129
H   83.092827   68.951744   13.770665
H   45.036774   27.863506   47.879341
H   25.177818   11.636678   92.709778
H   22.469969   52.432404   88.012535
H    6.205351   55.174686   88.970802
H    3.257946   69.543495   88.227783
