100
TIME:    1.278, STEP:  1278
H   30.895975    4.822259   97.975967
H   65.720345   74.037285   58.616085
H    1.722808   65.848488    8.334053
H   81.691116   79.996056   70.113029
H   83.724121   75.194862   31.052544
H    8.198715   99.823540    5.309862
H   85.990273   47.635029   90.394035
H   19.438019   99.165939   90.852043
H   22.212318   63.418900   19.641161
H   39.914803   34.733543   57.737083
H   81.378586   17.665333   16.646387
H    7.061062   87.750374    1.960094
H   61.967407   84.386497   98.106529
H   91.802849    1.136967   54.497364
H   96.045235   55.868893   89.339951
H   50.138947   99.952446   26.955551
H   21.317730   66.513168   89.714516
H   28.454559   32.551666   55.240524
H   65.165367   31.967150   30.692476
H   58.084671   78.674179    3.344831
H   88.438309   28.988434   22.557510
H   84.890739   45.786751   10.435271
H   68.680885   84.228325   95.784195
H    0.301451   52.009342   12.158394
H   83.875725   84.818001   45.991699
H   40.799015   89.528885   69.385056
H   51.875969   89.352127   25.326727
H   24.707649   16.092419    9.015952
H   38.959946   65.042114   96.761314
H   49.997143   59.209457   84.986198
H   66.374641   36.649261    8.282448
H   46.450809   17.203835   80.953224
H   60.379444   74.977837   12.929288
H   32.100395   56.601631   17.911242
H   49.005135   62.313148    2.550994
H   83.671722   84.877396   16.246916
H    2.376251   57.733253    9.166675
H   11.170095   35.563122   12.627026
H   93.265793   53.226463   19.636314
H   42.819992   92.540932   38.584461
H   47.903397    0.034549   72.453659
H   16.761833   69.216743   62.842701
H   22.248999   71.163727   93.784828
H   97.750954   34.189095    5.690460
H   45.798195   81.466873   65.472122
H   61.599529   87.292671   88.361000
H   49.574574   94.680862   38.543648
H   56.307667    8.541620   47.653316
H    2.389688   26.605423   93.493637
H   52.693539   50.201374   94.280479
H   43.447117   46.261131   66.891891
H   67.241325   45.150394   90.163132
H   35.390060   29.419006   28.645027
H   47.095715   86.353584   88.211746
H   39.018646   70.542007   11.250837
H   95.165298   11.188829   49.120667
H   77.270752   52.670906   77.535835
H   30.895634   56.196465   80.636795
H   91.070473   92.766632   13.370209
H   74.683136   26.019087   27.260216
H   40.318310   19.139427   14.753418
H   53.552429   16.049911   37.529655
H   60.920021   20.003517   45.882423
H   30.796850   48.746490   92.441628
H   83.048668   58.773296   14.578485
H   22.835579   78.739937   21.750685
H   85.031967   92.546967   28.764832
H   92.085442   90.626816   27.298391
H   20.596924   57.957397   80.078926
H   56.274208   12.422310   99.042023
H   81.449623    8.445494   46.819828
H   68.589249    9.111031   50.191391
H   23.664017   55.089825   28.978764
H    2.062323   68.506500   27.253258
H   23.789795   30.462141   98.278496
H   55.874020   89.480492    9.936952
H   82.989342   15.778208   13.647789
H   92.023087   67.156776   85.019211
H   22.810167   49.758640   31.938614
H   36.850082   39.351562   10.820306
H   35.891430   42.503155   56.371517
H   37.212505   52.573868   79.911697
H   98.660698   28.587267   51.623020
H   38.085148   21.521708   46.698830
H   90.101013   68.945648   23.864571
H   21.877224   55.999447   30.531593
H   52.509453   10.431923   84.483002
H   76.528442    2.974958   82.457802
H   82.204292   23.015043   17.743835
H   53.345963   56.696625   69.901283
H   76.323555   42.439739   60.450756
H   72.846016   91.624229   57.871864
H   67.282921   65.922104   17.784410
H   70.752022   90.752800   12.988046
H   34.497318   35.254326   45.453056
H   99.479111   45.263786    1.438397
H   61.160660   41.022137   63.690155
H   11.557528   27.119080   35.588547
H   47.830986   42.359249   37.998837
H   18.609543   45.877209   74.596138
