200
TIME:    0.930, STEP:   930
H   30.673254   60.185032   27.138149
H   34.113831   42.951370   17.908978
H    3.675855   99.339340   79.334404
H   41.100906   85.038643   26.456367
H    7.884231    1.217222   43.737961
H   67.171692   34.087311   45.126450
H   13.356093   54.814552   63.006847
H   18.351141   18.680595    0.580590
H   15.449430   77.161911   30.886787
H   86.571884   65.232307   68.856117
H   36.243656    9.333723   14.766319
H   33.631042   60.439934   45.619644
H   28.109371    9.908533   33.011955
H   71.791100   56.118084   75.515007
H   86.308975   77.256248   41.280861
H    9.188421   97.536850   39.438248
H   16.673901   40.032883   81.939529
H   20.178051   16.338242   31.236246
H   87.982956    4.721835   52.641266
H   92.251457   70.228966   10.722774
H   66.365791   11.202099   94.228775
H   74.667854   75.188423   43.984802
H   74.342903   57.524597   32.580040
H   23.223194   94.349998   89.422462
H   33.237305   40.454712   20.789303
H   18.089918   92.958466   84.167473
H   12.258157   72.641823   76.824631
H   10.346135   98.593407    2.546842
H   40.130062   35.556831   34.298027
H   61.868896   39.249073   74.757645
H   12.460642   80.276466   17.038414
H   19.378635   79.678207   10.591492
H   10.451317   23.832441   81.607269
H   73.590096   64.330711   50.350769
H   14.875444   61.289909   28.969839
H   10.513872   34.191086   87.379356
H    6.068468   59.536346   91.134987
H   98.785019   62.603863   84.144363
H   27.533218   21.693256   59.769119
H   83.465546   36.851040   36.743256
H   80.709618   72.990784   24.426865
H   47.683487   28.637701   19.370693
H   64.278152   71.931175   75.949547
H   35.744095   96.746315   43.425365
H   52.352913   97.347015   69.263969
H   31.349733   95.881493   50.192112
H   92.976929   92.406769   11.306754
H   73.317497   65.540077   22.842361
H   13.765113    2.567952   61.663807
H   37.425282   20.915327   76.521652
H   61.794205   61.762672    0.523706
H   94.762352   47.574200   78.376472
H   70.788292   74.690361   16.943424
H   12.137047   96.744705   91.921135
H   47.992661   61.039551   68.458061
H   96.460869   55.350349    1.242636
H    3.461358   19.356544   42.253010
H   74.947128   74.619659   92.848839
H   13.621473   87.806625   23.814610
H   27.144619   92.114662   54.238876
H   48.184830    1.914346   22.076286
H    2.337727   18.059443   54.356133
H   90.456635   39.499619   61.605991
H   40.844780   66.136757   19.073334
H   82.440216   86.365479   46.145496
H   11.672509   43.367607   45.265945
H   60.401222    8.607228    0.090796
H   93.477440   93.018684    0.932447
H   41.065399   15.177608   53.246361
H   41.265064   53.656239   50.945744
H   58.162468   88.526260   91.737915
H   12.748199    5.685397   39.934849
H   99.393204   37.591961   76.390823
H   30.344927   93.798134   80.660683
H   87.546829   12.041072   35.168945
H   70.754326   94.717033   58.368614
H   92.511169   55.637260   62.385159
H    0.998783   18.534464   24.373024
H   16.780951   60.428673   19.641275
H   57.877583   86.818756   61.538849
H   72.653297   18.440348   90.889587
H   56.976917   56.180676   66.526360
H    8.307691   21.235022   70.091194
H    2.173294   84.422310   16.339962
H   14.337181    6.620361   38.228020
H   44.106071   61.632324   13.419346
H   66.780006    4.221916    3.353229
H   69.593422   92.863831   37.467209
H   86.805679   73.736603   79.655640
H   19.988129   16.975874   47.274410
H   12.319035   40.849331   77.685410
H   79.249138   94.589386   13.423527
H   80.039032    9.080173   76.078262
H   29.086924   69.644142   88.050819
H   42.608101   47.592628   96.677498
H   40.697548   43.136276   96.619316
H   88.665489   90.412407   28.045815
H   97.872505   40.874226   57.189919
H   21.382988   62.866028   55.326508
H   79.201729    9.138920   27.418863
H   40.651638   99.504150    1.431025
H   16.229181   87.095642   62.058525
H   37.482452   11.953099   40.144581
H   55.030754   69.213440   17.563820
H   24.424070   18.405006   47.458103
H   14.740263   92.990936   11.585759
H   88.398643   36.950062   50.984638
H   60.685024   60.766876   92.060982
H   90.331886   31.379898   32.497608
H   26.531992   18.439913    8.914301
H   56.272797   90.070763    1.281316
H   13.698923   80.696472   98.370735
H   45.109901   88.281631   78.926903
H   60.886833    4.521878   57.161720
H   40.824287   10.700753    2.578969
H   85.879539   85.613319   10.062368
H    4.205449   18.158747   92.223923
H   37.270367   60.958996   20.186089
H   45.065964   83.619141   49.438763
H   88.991783   60.446224   75.083603
H   47.756111   26.344624   64.909737
H   88.518051   11.134434   68.484024
H   48.871529   92.721268   44.498798
H   93.911667   42.489487   87.648735
H   56.269859   91.868690   69.992470
H   73.000473   81.231430   12.209209
H   78.235603   52.411667   44.406967
H   60.335976   92.981651   40.830135
H    0.959040   27.507282   69.165855
H    1.189174   20.878910   78.256752
H   76.462273   60.548859   29.780132
H   55.215401   92.894943   25.598881
H   90.184639   16.164427    2.508656
H   67.087021   30.693760   58.198971
H   38.512501   88.893799   24.710114
H   43.980469    0.741299   73.516273
H   70.035065   88.322792   89.688103
H   97.103813   42.676876   72.296043
H   64.348663   53.983063   71.386894
H   43.821709   75.998100   76.284973
H   84.777588   42.777489   37.198883
H   25.473888   61.975830   62.331905
H   32.824448   69.459938   76.110855
H   26.095802    1.550794   89.558449
H   72.735184   46.883240   71.631256
H   71.222603   73.862930   96.799309
H   61.050529   93.756096   42.341366
H   23.811577   47.734261   64.866234
H   83.631317   35.983566   91.085098
H   31.457272   96.207985   64.175629
H   51.900551   73.028244   46.135189
H   62.833046   88.016731   26.529289
H    8.230072    6.038342   79.243286
H   28.149532   16.980814   58.900723
H   40.973644   72.102524   73.235512
H   83.985420   45.239796   75.290573
H   66.533859   81.577087   88.925949
H   55.856056   25.589111   25.889427
H   80.801552   99.134232   77.015434
H   55.943813   28.790285    4.720043
H   60.733711   56.377083   65.069862
H   11.206869   19.480537   29.566383
H   94.920433    4.486039   36.945148
H   36.602097   40.449780   41.678688
H   52.347511   45.501259   16.604223
H   23.801762   42.484608   58.529964
H   63.018349   86.406685   59.536419
H   24.234974   62.326111   76.545120
H    3.449366   25.926310   35.227638
H   57.961258    5.252681   82.633270
H   66.183228   13.839519   35.918167
H   22.325735   39.818100   59.576988
H   51.004738   47.804363   71.009354
H   62.728989   58.035080   90.247955
H   39.367859   89.845963   66.787651
H   22.206108   51.393738   23.963692
H   28.329388   74.477036   15.770607
H    7.845392    9.858894   73.703140
H   57.954792    5.338859   61.065655
H   53.478577   61.856682   96.118660
H   68.820389    9.916356   25.676918
H   33.145004   30.948330   94.805756
H   33.864033   89.438217   19.737457
H   66.507088   26.497074    2.574593
H   94.445923   58.406937   75.554123
H   13.705175   42.046066   87.407570
H   55.378174   92.705925   14.553919
H   57.271866   96.451851   49.670822
H   86.635597   64.250160   74.429306
H   62.160988   54.519878   74.420670
H   80.781235    8.195786   74.374092
H   41.996445    3.680732   15.835681
H   19.427002   33.939529   73.613823
H   23.049337   91.068588   47.218884
H   61.215553   23.435963   19.559223
H   77.012711   12.076571   20.113037
H   14.047786    4.374380   26.755964
H    8.856289   83.692726   27.507294
H    2.712026   13.542570   47.157845
H    0.811062   11.615671   88.162537
