200
TIME:    0.870, STEP:   870
H   28.829611   60.384159   26.112186
H   33.579163   42.075439   15.473115
H    4.933418   96.713150   76.379082
H   39.078506   84.337349   28.025352
H    8.521272   99.696503   44.600616
H   69.123596   35.715805   46.902344
H   12.486800   54.857124   61.845501
H   17.006575   16.089882    2.710298
H   13.012869   78.061417   32.350574
H   88.684006   66.073219   71.222755
H   34.152363    8.052042   12.870262
H   33.382935   58.838448   42.760681
H   26.636745    7.917033   35.471062
H   74.626945   55.864941   72.623772
H   89.205704   76.794365   41.428490
H   10.937250    0.008781   40.732574
H   13.845678   37.224045   84.846329
H   21.602726   13.453708   32.304356
H   85.986649    6.894009   51.758011
H   92.060570   71.052940   13.048728
H   65.645729    8.207066   96.977646
H   76.003609   72.895027   46.296967
H   76.139626   57.960846   34.019707
H   21.952328   93.802971   89.610603
H   30.629425   38.041611   22.930264
H   18.139585   90.295654   86.149132
H   11.096181   71.437904   74.412216
H    8.969068   96.118279    2.388971
H   37.602978   37.380562   34.649361
H   64.580414   37.641636   76.833145
H   12.538977   77.769753   16.965057
H   20.469715   78.271957    9.114231
H   11.901054   22.541433   80.874390
H   75.575874   64.265251   49.302032
H   17.754869   63.768929   29.426344
H   12.479681   35.557968   86.698204
H    4.346418   60.831360   90.684547
H    1.752794   61.051815   86.841965
H   29.753830   23.841656   58.435425
H   84.040955   37.097775   39.087006
H   80.691765   75.793671   22.435364
H   44.697037   29.895979   21.149906
H   65.358475   73.309502   73.721611
H   35.877762   93.832191   41.279598
H   50.302818   95.516418   67.098747
H   32.194168   97.442924   49.539570
H   91.846252   95.346527    9.991370
H   74.778221   65.540993   24.999344
H   11.444709    4.844820   61.620548
H   39.572422   20.644560   79.059952
H   63.221512   62.522102    2.901526
H   97.055748   46.541485   77.086494
H   69.169640   76.406059   16.160076
H   13.030087   95.478531   91.032616
H   50.532333   62.373932   70.398521
H   97.229912   56.828697   99.277802
H    3.632576   19.129494   42.896626
H   74.291611   73.224854   93.931908
H   14.887533   86.647568   22.363499
H   28.532330   92.451576   55.348038
H   48.379150    3.084947   23.829407
H    1.259450   17.917307   53.896080
H   88.803650   38.256790   63.630451
H   39.390923   66.051155   17.733688
H   81.475708   85.471008   43.691883
H   14.026158   41.036674   44.187454
H   62.642433    9.872888   98.851173
H   93.813438   92.882271   99.744469
H   38.931305   14.366794   54.005791
H   41.610447   52.610477   50.948948
H   58.188789   87.488510   90.132996
H   14.434486    7.262478   40.354847
H   97.488907   36.554668   78.399948
H   28.390162   95.116951   78.913857
H   86.816238   11.069812   37.990143
H   69.237755   96.835106   58.760689
H   92.764771   53.403603   63.234081
H    3.221068   17.441896   26.424721
H   16.323530   57.757164   20.974169
H   58.781895   87.153381   64.384308
H   70.106758   19.454409   91.780396
H   54.338596   57.259853   68.381218
H    8.541780   20.576872   71.846718
H    4.129861   82.460335   14.384463
H   16.473793    5.985872   39.928383
H   42.415779   63.731628   14.668297
H   64.091103    4.096889    3.215671
H   70.092384   95.096802   35.204254
H   84.969131   73.590576   79.439575
H   20.288651   14.286362   47.934505
H   14.834160   40.331371   77.952286
H   79.667076   94.062958   12.114323
H   77.188538    9.756863   77.787094
H   31.777544   71.799751   86.403328
H   41.087868   48.404243   94.178566
H   43.182289   41.794800   99.440514
H   87.851585   92.487907   25.461739
H   95.340614   39.219410   55.750938
H   22.742546   63.467072   55.113876
H   78.158485    8.164055   27.404215
H   37.974636   97.845215   98.605629
H   13.998206   86.187897   62.389488
H   36.238708   14.145844   39.306187
H   52.147758   69.102661   15.181045
H   24.503607   19.193504   45.512836
H   12.364813   95.928406   14.394883
H   89.737602   36.927631   52.134769
H   61.038647   58.463181   94.380928
H   88.807076   32.137268   29.596302
H   24.604578   19.276476    8.620646
H   55.483383   90.592155    1.239102
H   11.289885   79.187683   97.687294
H   46.152000   87.585373   80.231987
H   61.090080    5.815375   58.708733
H   42.826546    8.202336    4.682794
H   88.328117   87.368385    7.355547
H    6.672395   17.313829   91.524460
H   37.574780   58.005733   21.385429
H   42.787445   81.366486   52.403927
H   87.408379   59.248714   72.845139
H   47.129890   25.945911   66.875832
H   91.106705   12.555790   66.719345
H   47.424995   95.251785   42.718784
H   94.795609   44.648529   90.276299
H   58.065208   93.354134   71.976875
H   70.802750   79.589432   13.367466
H   79.726997   52.131516   46.724167
H   61.648384   92.511070   40.323391
H    0.220642   29.679142   70.533195
H   98.281006   21.163296   77.234566
H   74.040245   62.691193   27.487194
H   57.518410   92.299850   24.183933
H   90.380562   13.245382    2.062193
H   70.029068   29.155445   57.460598
H   35.548481   89.978699   27.467224
H   45.578522    0.818304   74.400215
H   69.935730   88.169899   86.701195
H   96.592033   44.550274   73.244072
H   62.780365   53.143982   71.401085
H   43.789207   78.875603   77.952148
H   81.807159   44.541939   35.260712
H   28.235920   60.152786   60.933208
H   34.753235   68.355812   78.134628
H   28.845131    3.722698   88.564186
H   69.914902   48.873138   69.669281
H   69.023964   72.829300   99.673149
H   59.631462   94.018852   42.770977
H   25.449913   49.967690   65.210472
H   82.027313   38.488678   91.681564
H   29.544621   95.552925   66.420959
H   54.015190   72.009262   46.588146
H   60.307335   89.677040   28.409554
H    5.442718    8.281841   81.349457
H   26.563496   15.603615   60.383648
H   38.594418   70.517746   72.150154
H   82.204262   45.091022   73.444412
H   65.905807   79.777618   88.215500
H   55.003014   26.551788   24.483749
H   83.547676   99.360367   79.240623
H   56.616497   31.238520    2.417673
H   60.144341   58.814674   66.665169
H   14.024061   19.791473   30.086174
H   92.337730    7.102015   36.970097
H   34.399796   38.687160   44.245598
H   52.922005   43.465355   16.014738
H   22.768017   44.393711   58.857952
H   64.051521   87.377144   58.900356
H   24.182560   59.596237   74.064041
H    2.633917   26.121431   35.369316
H   55.223145    5.705466   83.308929
H   67.329468   13.125979   35.923203
H   24.398603   42.046722   59.392738
H   49.845451   50.382717   72.697586
H   63.468048   59.469940   88.855896
H   42.156555   90.297318   69.608849
H   20.354912   51.068039   23.902122
H   28.945766   72.602493   13.260918
H    7.313613    9.801674   72.935928
H   59.489445    6.733722   61.767178
H   56.332504   61.213066   95.272255
H   69.915817    7.766123   27.071838
H   31.934900   30.875088   92.615356
H   36.626865   89.501846   18.548645
H   65.200630   26.386066    0.367309
H   93.670013   61.009323   75.801315
H   12.449129   41.539780   87.107277
H   53.288940   93.733604   13.224459
H   60.154404   93.910347   47.571289
H   88.373268   63.982815   73.743576
H   61.069908   54.846264   73.662613
H   77.915176   10.180878   74.802559
H   42.488312    2.050106   16.599905
H   18.094223   32.511993   72.239159
H   24.097502   88.674026   46.009701
H   63.274803   26.115826   19.755489
H   76.866226   11.929342   20.935066
H   13.648959    2.738172   24.730818
H   10.600082   84.885201   29.199417
H    3.512125   13.374685   49.841255
H    1.436866   13.648428   88.996124
