100
TIME:    1.295, STEP:  1295
H   29.746382    3.263285   97.960403
H   65.247459   74.958931   59.688442
H    2.014985   67.071556    8.134445
H   81.693970   79.295677   69.181267
H   83.571854   76.557487   30.591591
H    7.935096   99.805122    6.993462
H   85.099236   48.783001   91.723457
H   18.101852    0.636690   89.291237
H   21.794426   61.784424   18.571074
H   39.450218   34.977638   58.402832
H   79.797287   18.349369   15.008863
H    6.412174   88.602501    0.750049
H   60.886101   83.357979   96.416801
H   90.961098    1.084556   55.791119
H   96.251976   54.350498   88.522842
H   49.455429   98.465569   25.544418
H   19.951019   67.637405   91.262352
H   28.817848   31.724960   54.651169
H   65.430214   32.680367   31.588053
H   57.626701   78.313095    4.502255
H   87.429504   27.295982   22.096104
H   86.520805   45.809189    8.987725
H   68.453911   84.090065   95.297821
H   98.721962   52.213230   10.895800
H   83.267693   83.469643   46.117119
H   40.721066   89.022278   67.791565
H   50.409973   88.645523   25.664076
H   23.273300   16.885921    9.577876
H   39.329590   66.584503   95.957695
H   50.649014   58.788712   86.337669
H   67.043373   38.173752    6.937254
H   47.524204   16.734192   79.379448
H   61.576962   73.734016   14.460782
H   32.818672   55.043678   17.195105
H   48.582573   61.028084    3.586128
H   85.149780   86.212784   16.188421
H    4.006755   57.110695   10.506181
H   10.467480   35.251972   13.826651
H   92.501602   52.863564   18.006897
H   41.218849   90.949516   39.922054
H   46.741676    0.617860   72.854172
H   15.233971   69.979637   63.641392
H   22.395430   71.265671   95.012825
H   96.665367   34.474045    7.352626
H   44.323639   80.796066   66.926834
H   61.380207   87.616920   88.430000
H   49.754078   95.597839   38.688911
H   56.308575    8.716650   48.705181
H    2.886575   25.197533   92.815567
H   53.050083   50.460125   93.091393
H   43.445820   44.619911   67.071136
H   68.067513   43.572857   89.047195
H   35.742714   29.517578   27.657688
H   46.702076   86.076286   88.961929
H   37.665230   72.032257   11.395096
H   95.186569   11.170963   48.541946
H   78.348557   52.180382   79.152672
H   29.629700   54.591042   80.198929
H   92.411308   93.484909   12.065105
H   73.561234   27.325811   26.776695
H   41.390667   18.348907   13.427984
H   52.949066   15.891655   36.760406
H   62.073181   18.844196   44.716164
H   31.964212   48.838966   91.980156
H   83.723366   57.415470   16.161665
H   21.791237   77.894814   22.755857
H   83.668045   93.134766   29.585636
H   90.911140   91.599045   28.111090
H   21.444252   56.735886   79.012794
H   56.618561   13.277388   99.006226
H   80.909813    7.288767   46.615940
H   67.187454    8.546804   51.436119
H   22.555538   54.248981   28.542843
H    1.688167   67.430771   26.242897
H   24.609432   30.486330   99.567192
H   56.275959   90.569969    8.793097
H   84.532768   14.304754   13.948595
H   92.821777   66.045250   85.957977
H   23.625071   49.708836   32.128212
H   36.016373   38.425636    9.355769
H   36.224110   42.679028   57.387585
H   38.488102   52.684891   78.490189
H   99.736427   28.870985   53.242191
H   39.254650   22.976419   45.146065
H   89.273270   67.882370   22.216606
H   21.485920   56.623951   31.712120
H   53.644844    9.195885   85.293625
H   76.802109    1.613923   82.281151
H   82.557076   22.068560   17.604733
H   51.843002   55.997154   70.509056
H   77.019264   43.357624   60.809765
H   74.103844   92.902809   58.195724
H   68.373695   66.431564   19.099630
H   72.395058   91.783913   14.134267
H   34.203419   33.731522   45.843712
H    0.883249   44.592461    0.560305
H   59.811264   41.997738   62.712479
H   11.619946   27.263824   35.316566
H   47.021141   42.432529   36.574863
H   19.665298   45.440510   72.958809
