100
TIME:    3.108, STEP:  3108
H    7.141212   37.001823   96.300552
H   14.815569   73.256668   74.051712
H   33.178474   97.506516   86.856270
H   81.998276    4.599840   69.804382
H   67.332977   21.877407   81.434402
H   79.825935   97.840965   86.541618
H   90.080193   71.205620   33.502586
H   75.603622   57.482525   22.827427
H   77.227364   87.471786    4.448803
H   89.908134   61.009636   29.395784
H   11.156433   91.299820   40.371166
H   37.217453   79.478745   71.698296
H   45.562080   73.669006   16.219303
H    1.191386   95.496132   93.759621
H   18.305588   92.408493    1.372680
H   76.558258   39.892120   75.050148
H   74.180244   87.540863   56.321850
H   67.560265   43.558693   91.794617
H   93.675346    8.736323   27.103975
H    8.785583   39.813244   27.939692
H   79.843597   46.806633   72.884644
H   60.347336   48.209900   54.603363
H   44.247749   69.345055   43.427475
H   30.274658   73.957275   76.247047
H   18.424294   39.679710   59.493080
H   32.407978   35.001553   97.858833
H   94.072342   13.280566   61.641346
H   70.297081    1.510645   69.507622
H   78.751053   31.073725   10.255808
H   20.167850   13.917243   30.465221
H   38.374462    0.756455   63.483879
H   61.998207   66.638145   11.540901
H   89.280731   41.085823   77.790138
H    9.421233   88.893166   40.815262
H    3.514040   23.979309   13.984581
H   42.783077   28.634207    9.956208
H   77.896217   90.713364   53.363522
H   35.531921    2.069092   41.763950
H   13.881902   13.699373   43.123672
H   70.453812   21.222456   82.565590
H   22.841803   62.824070   15.568866
H   52.291832   51.348221   48.817337
H   38.011860   82.137695   25.968044
H   80.892548   64.862762   84.617516
H   87.059486    9.266745   22.071024
H   37.990139   22.197132   95.788673
H   66.015915   93.860748   55.295845
H   56.405399   27.383059   60.883354
H   55.877472   75.044426   20.494165
H   91.064659   78.048103   66.285675
H   43.307499   69.586121   86.187088
H   56.175434   75.340576   70.028526
H   73.348732   40.029968   22.361122
H    4.721676   56.499763   68.964020
H   93.329300   30.961311   26.782709
H   97.455032    9.265554   86.823151
H   93.286018   99.866417   51.584145
H   94.628410   83.375183   33.501785
H   35.397919   70.089249   72.881218
H   53.921837   66.680298   75.211678
H   55.755867   34.035748   72.070877
H   88.605614   99.013260   54.728844
H   85.062737   95.198418   20.345596
H   56.461189   58.701248   42.759602
H   55.685680   12.612819   85.003380
H   10.415800   87.765022   29.953152
H   38.208260   55.812351   17.116541
H   65.674934   95.286438   14.782973
H   11.803467   26.465263   65.305672
H   93.353821    4.465342   95.188568
H   23.339603   83.931190   24.866402
H   17.698633   48.376709   84.175262
H    4.343680   64.570061   82.058586
H   61.795185   52.699883   18.490868
H   12.021338   33.068874   37.005894
H   99.130272    6.765872   86.800507
H   49.141613   57.166771   46.016148
H   77.999817   47.496601   86.083054
H   10.553676   44.389553   52.358521
H   47.103218   39.685589   53.164200
H   71.700424   61.435345   65.746628
H   74.521591   64.525162   26.888781
H   14.441895   59.134888   25.921421
H   63.974293   78.117157   79.548767
H    0.994907   54.478359   46.466637
H   79.761536   23.215626   57.612179
H   74.731010   77.375999   71.744720
H    5.986406   56.460358   63.420235
H   20.182995   21.123693    2.772288
H   91.549377   81.404129   35.321426
H   51.214783   41.254581   99.097000
H    8.252235   29.245066   92.745964
H   84.683502   20.771986   59.350853
H   47.628292    1.755302   36.375252
H    2.853750   71.334595   87.505974
H   50.629654   72.999886    6.916687
H   15.904107   46.042233   58.445732
H   18.275457   42.700439    6.305698
H   60.655479   50.247662   84.709160
H   32.260715   98.878914   98.335648
