100
TIME:    3.197, STEP:  3197
H    1.122664   28.840050   96.219070
H   12.339706   78.081757   79.665817
H   34.708298    3.909452   85.811943
H   82.013214    0.932820   64.926331
H   66.535812   29.011150   79.021179
H   78.446175   97.744545   95.355247
H   85.415352   77.214912   40.462502
H   68.608398   65.181992   14.655497
H   75.039574   78.914825   98.846519
H   87.475899   62.287544   32.881172
H    2.877875   94.880951   31.798578
H   33.820335   83.939880   65.363075
H   39.901123   68.284409    7.373580
H   96.784615   95.221809    0.532172
H   19.388279   84.458572   97.094734
H   72.979843   32.107880   67.662453
H   67.023415   93.427933   64.423874
H   69.461510   39.230644   88.709167
H   95.061897   12.470233   31.792582
H    6.387978   37.923542   33.999229
H   74.562210   37.946152   70.468704
H   68.879852   48.328049   47.024185
H   43.059471   68.621223   40.881165
H   22.005600   75.024689   69.637505
H   15.241364   32.621338   60.150368
H   31.999887   32.349995   89.516441
H   86.398102    9.580777   63.407467
H   62.787273    5.664841   72.449120
H   80.686249   39.148544    6.048924
H   23.580246   11.714345   37.540497
H   41.877506    8.737105   56.442482
H   67.617744   64.178749    3.301764
H   95.549408   34.574059   85.807961
H   13.181794   80.736824   37.065735
H    1.301587   17.251617   19.403809
H   50.521145   35.625874    9.650311
H   86.432808   87.454086   60.376400
H   31.853691    0.440197   48.044170
H   10.125075   11.760443   34.498810
H   62.070835   12.890525   89.567604
H   16.759516   65.878021   17.665632
H   44.293022   55.342873   52.998718
H   38.778469   82.671402   32.396610
H   75.209183   66.353882   93.319786
H   79.339073    5.755383   29.687208
H   36.841923   23.894672   96.149910
H   66.711227   98.700775   56.150726
H   56.410152   28.299391   66.390175
H   58.478783   67.673027   16.943930
H   92.930595   79.402061   60.060886
H   43.300709   60.993851   87.125488
H   60.500767   67.082382   64.186272
H   75.194298   40.546021   17.192112
H    2.660862   55.047348   72.891449
H   86.243088   38.761169   27.539473
H   97.566391    9.171850   83.793381
H   98.928642   97.298378   60.048759
H   88.001213   74.970322   31.209309
H   42.416908   73.849640   66.048958
H   48.049026   73.520706   72.680305
H   61.369972   29.897144   65.131332
H   85.446831   98.184860   50.701599
H   91.104622   89.125298   14.242599
H   62.573013   59.185387   40.342983
H   59.218601    5.504399   93.291451
H    4.948484   83.340553   35.215393
H   31.067680   58.888973   21.413694
H   59.527122    0.376363   19.037687
H   16.239319   20.070290   59.723637
H   95.157288    8.941858   95.001160
H   20.513199   77.875725   23.798649
H   10.360297   45.422989   90.691101
H   98.540588   60.167912   79.777092
H   59.836224   47.067444   13.201332
H   16.312223   33.195850   43.752598
H    1.234191   12.469965   80.811584
H   57.222584   49.452469   47.590107
H   82.181198   41.676754   90.997772
H   14.821462   44.128132   53.351921
H   42.738503   34.838093   45.496750
H   73.441422   62.356091   71.066040
H   81.199036   65.106400   19.446424
H   20.072927   60.620575   34.398258
H   70.097656   85.733002   71.419586
H   96.661377   48.911106   37.839058
H   77.713623   26.484749   63.792583
H   80.675117   70.904976   75.988571
H    7.418791   49.334763   62.494736
H   22.030258   16.168573    2.044128
H   83.680939   77.742874   38.502617
H   54.857025   46.059978    0.976533
H   14.837843   35.938126   94.442146
H   90.388596   23.442556   66.233360
H   56.230747    7.153887   42.375717
H    1.314836   63.362888   89.551170
H   57.980682   69.485298    2.319578
H    8.839793   51.149792   53.327309
H   18.602064   43.458221    4.881632
H   56.415703   50.631306   77.254921
H   37.788586   96.594704   89.762390
