100
TIME:    8.186, STEP:  8186
H   63.736320   71.325951   91.651505
H   74.399307   48.452297   94.258377
H   20.480761   62.837509   27.248634
H   82.850601   95.386345   91.459908
H   21.845469   28.901249   43.748535
H    1.072924   92.339592   89.433052
H   23.942303   14.095126   30.609028
H   76.482834   96.795555   56.583267
H   52.400368   99.242035   84.807846
H   51.171181   33.923832   28.235359
H   38.813248   95.624252   51.232094
H   43.405350   34.012310   10.240891
H   21.755806   66.497208   11.605192
H   49.759178   79.844337   80.198540
H   80.033150   38.818954   57.234993
H   72.381775   95.751366   53.531525
H   65.837593   23.411411   18.592230
H   76.117813   96.508385   15.759371
H   72.762665   21.765484   94.633026
H   71.969223   31.975409   73.673561
H   78.507881   41.275478   35.062023
H   47.180134   54.951019   22.164734
H   76.447304   28.047869   98.138321
H   58.461273   34.756561   99.109787
H   36.805244   36.969765   96.995399
H    9.009731   84.780197   20.543030
H   56.191765    2.193584   62.394451
H   41.830673   38.534504   37.357948
H   89.167259   91.790207   70.215538
H   14.881063   88.235703   34.151642
H   38.226093   56.109444   61.728813
H   82.626396   26.341640   41.445030
H   46.968143   69.555702   35.256485
H   23.980156   23.524544   26.887548
H   77.228706   39.874931   23.094633
H   84.232895   26.592047   93.690742
H   64.941978    4.745329   53.490078
H   25.650330    9.142679    0.105653
H   99.536797    3.059504   51.027946
H   92.163834   45.837692   82.092407
H   75.796585   37.063515   35.203091
H   10.342484   73.704559   97.870872
H   81.735931   12.593204   92.757118
H   56.639164   50.045090   81.118683
H   46.580566    8.916279   56.608894
H   72.457726   19.048805   16.417814
H    5.691257   70.020576    4.042876
H   56.687252   79.683136   75.080849
H    4.317492   54.484772   17.930599
H   97.607178   55.329594   11.166875
H   42.939503   79.337868   39.719940
H    2.967780    4.138409   36.677094
H   78.672005   69.473938   27.442060
H   87.123413   73.644669   93.042618
H   89.013069   75.987305   69.972412
H    3.791412    3.922846   13.956039
H   15.209510   53.342934   34.544258
H   16.509508    3.820261    2.701563
H   35.886990   84.656151   83.047211
H   18.827850   56.992329   30.781273
H   76.079636   97.885376   76.150490
H    8.380806   51.747940   24.963463
H   29.807713   48.685333   72.131866
H    5.157271   86.355652    4.887379
H   57.241028    7.041462   57.895584
H   98.470161   35.322929   30.204563
H   30.790834   31.374195   62.282330
H   14.902916   85.703056   57.540741
H   64.893066   61.592583   46.821823
H   96.278145   59.804241   84.481232
H   62.089741   38.426071   63.956490
H   99.170715   79.792381   56.075703
H   73.248520   13.399263   51.862530
H   50.000790   31.328239   16.769289
H   56.798798   40.368656   21.969534
H   19.177942   32.218254   45.115067
H   10.246108   17.280983   35.921417
H   16.571657   15.461147   66.523987
H   54.060272   29.473858    9.012037
H   98.076744   63.089287   15.689865
H   71.069679   13.970284   69.248962
H   55.566391   97.557968    2.163798
H   35.657005   44.017002    9.535764
H   13.333524   12.652752   15.753134
H   53.740280   36.837017   54.212090
H   62.894207    9.738471   10.243953
H   13.879289    8.163391   13.883400
H   87.682426   50.022774   10.701904
H   25.567913   38.388390   61.239876
H   42.586590   72.483170   16.847284
H   59.027546   15.452262    6.335396
H   83.980003   11.145037   89.503716
H   10.191858   73.139702   52.040527
H   38.411064    9.807973   78.768211
H   15.059990   16.477196    4.192732
H   70.051620   72.475891   44.631477
H   12.836378   37.456322   66.404320
H   22.476442   91.503227   14.546877
H   18.750664   72.151329   59.375072
H   47.674442   68.565170    9.156253
