100
TIME:    8.519, STEP:  8519
H   41.216545   40.788078   91.346634
H   65.202377   66.497742   15.254809
H   26.204706   86.795258   23.339939
H   82.906494   81.667168   73.208321
H   18.861547   55.592670   34.719284
H   95.910034   91.978828   22.410770
H    6.490049   36.581871   56.650059
H   50.309692   25.603861   26.007286
H   44.214592   67.225540   63.847973
H   42.075874   38.705219   41.274025
H    7.838394    9.023042   19.156656
H   30.694786   50.703976   86.537651
H    0.521192   46.342407   78.511993
H   33.270760   78.817940    5.538899
H   84.077766    9.073746   41.221664
H   58.992874   66.626060   25.889641
H   39.059792   45.435772   48.906532
H   83.236542   80.304512    4.216738
H   77.950546   35.736179   12.176677
H   62.996151   24.903681   96.345772
H   58.747185    8.123341   26.024309
H   79.105171   55.393082   93.806763
H   72.001274   25.340872   88.611115
H   27.519632   38.740204   74.379700
H   24.895725   10.560349   99.454689
H    7.439318   74.963364   89.206314
H   27.475695   88.352188   69.000595
H   13.733532   54.077824   48.366318
H   96.407936   22.002279   54.474052
H   27.648846   79.994034   60.624573
H   51.332989   85.970848   35.382912
H    3.652244   17.142170   10.617531
H   70.424698   45.191460   65.255753
H   38.050659   93.007263   12.859690
H   68.941307   14.662132   43.355824
H   13.179785   52.676003   92.644020
H   96.882256   92.550056   79.729271
H   11.886883    3.048418   23.603661
H   85.482262   95.804100   18.757915
H   60.797989   14.662812    8.291356
H   53.037994   48.488541   43.048428
H   82.278915   75.010422   14.871259
H   84.601715   14.590742   16.810062
H   35.376980   55.636925   13.677821
H   17.695988   95.779854   85.104790
H   68.159050   25.399006   17.770678
H    8.294684   88.129890    7.240693
H   56.707577   83.112930   95.685020
H   14.050606   26.906685    4.646589
H    4.597618   60.398067   87.884117
H   42.916637   47.189262   43.231033
H   19.152185   73.239578   14.816907
H   85.577324   71.404785    8.101831
H   79.410187   68.212891    7.736723
H   62.499489    5.168834   72.802628
H    4.206163    3.572562    2.619934
H   36.319283   43.734428   66.215233
H   91.713806   72.372734   94.124290
H   62.151592   98.725929   57.483162
H   96.853477   82.586914   21.309959
H   97.085220   82.397949   50.187031
H   96.561943   48.648422    9.896246
H   52.416286   25.961973   49.297058
H   28.023876   88.169632   95.846771
H   70.458466   80.445984   88.906006
H   78.013344   18.768456   49.894123
H    4.072783   42.885670   78.359177
H   91.900024    4.747576   73.460068
H   81.488190   37.665321   25.935646
H    3.041262   76.530838   83.774948
H   51.513271   15.767468   59.962685
H   71.747604   68.735741   80.484848
H   51.536652   96.927269   43.323612
H   42.671192   10.252789   96.984138
H   72.840073   40.858990   47.217899
H   27.051226   53.561737   22.709089
H   40.490067   88.459106   41.828285
H   32.215313   93.688301   84.917847
H   70.028831   28.495731   12.728283
H   81.745842   44.949486   87.001823
H   77.588829   17.415323   89.151932
H   80.554764   99.717468   74.303825
H   56.721024   49.585972   41.249928
H   36.243042   41.148781   85.338280
H   37.526245   16.006733   21.931770
H   55.229252   21.970135   33.368546
H   36.119602   83.951454   29.762077
H   93.037987   23.374954    7.249176
H   32.479496   19.848009   58.516365
H   13.144464   58.783348   28.751211
H   72.655266   33.432026   13.367820
H    8.618631   36.189224   95.850105
H   31.537708   83.129295   77.791931
H   70.593216   30.010731    1.221890
H    9.301746   86.649368   11.844349
H   97.556030   59.325806   27.431694
H   86.404411   56.566628   47.253365
H   21.833673    7.980745    7.861319
H    2.887653   73.589302   31.481953
H   68.357910   60.019817   77.078217
