100
TIME:    0.363, STEP:   363
H   92.774574   88.732430   98.813675
H   91.172691   24.426006    0.898476
H   86.001282    0.019936   19.077652
H   81.537537   17.694529   20.265650
H   91.919693    1.853571   55.862648
H   22.387386    0.818570   14.694378
H   33.945972   85.849068   18.839846
H   91.355209   20.006458   74.865135
H   44.704765   51.392456   77.238182
H   64.920372   21.598263   21.904146
H   66.489655   80.848694    4.783833
H   41.986485   41.885887   67.090309
H   20.172295   39.745483   89.049706
H   37.108250    3.958055   84.864464
H   84.917686   37.598404   33.322956
H   86.928268   79.987007    2.907670
H   94.881905    6.002790    6.405375
H    8.901704   77.047897   86.961716
H   50.916786   93.580551   82.486740
H   82.823311   97.920990   40.952614
H   42.735611   20.079330   47.389885
H   97.154518   44.579056   88.346748
H   80.897453   91.669960   21.964420
H   85.314880   41.035374   80.115662
H   16.600592   57.385891   39.239029
H   44.994534   16.793282   55.148895
H   30.776510   27.387154    7.169456
H    1.912651   73.382797   78.773849
H   19.064392   82.026329   40.012512
H   14.912805   81.855484   12.246212
H   30.381136   54.594536   80.687157
H   88.677490   42.481659   65.659355
H   95.926575   41.923058   30.498861
H   93.439476   40.455841   56.458473
H   71.748894   31.480270   46.831940
H    4.116208   13.001165   19.395300
H   14.615777   91.241554   37.068188
H   48.985832   52.310291   48.056583
H   34.400906   72.759010    7.334356
H   29.003223   78.200768   66.595268
H   10.435299   68.634483   50.892406
H   98.996788   28.149019   19.854345
H   14.367929   65.676743   27.693314
H   56.179260   18.855059   16.224133
H   25.168247   17.569633   87.170105
H   73.315346   70.028130   84.741798
H   39.913013   45.323284   30.725042
H   56.258801   99.120422   91.038345
H   75.639458    2.386377   29.993349
H   33.503056   36.274487   58.275055
H   43.516926   34.598640   57.244297
H   22.773741   30.054920   50.232513
H   16.409006   24.113525   81.788033
H   68.281326    1.279202   47.834248
H   11.860588   90.327255    3.486365
H   94.020432   12.150448   80.269424
H   19.264893   79.072655   90.511681
H   99.029236   42.605934    4.204620
H   18.906334   54.106430   83.616089
H   35.064201   55.690140   53.284996
H   82.598801   61.687988   86.093384
H   86.027557   24.566605   78.930832
H   98.854362   82.399437    8.654794
H   67.966988   43.769112   17.284513
H   46.730728   31.851627   29.366343
H   79.045753   24.227314   67.649254
H   58.444572   60.910229   84.587570
H   55.290916   38.298019   83.556099
H   74.995049   23.703453   37.465992
H   37.739929   66.402977    0.967430
H   10.505152   70.706032   57.793797
H   44.035809   39.478325   83.199074
H   83.323242    0.352520   52.441555
H   22.201042   26.408010   81.634438
H   79.672897   29.160204   28.916153
H   34.240223   30.837091   71.503403
H   99.912567   95.081902   97.456604
H   49.034729   26.984718   34.487408
H   78.952705   52.438633   21.736034
H   81.723282   89.184654   89.648468
H   17.985432   33.037060    1.684673
H   68.560204   46.598221   56.426369
H   40.763950   13.316251   64.473816
H   75.141510   43.223972   30.274117
H   34.655090   26.177773   12.563601
H   42.938587   22.387432   66.991066
H   91.398659   76.959862   40.852398
H   61.798752   76.231407   91.965782
H   63.216255   73.961006   25.230846
H   34.241951   94.350220   37.188808
H   38.878025   93.032822   41.127636
H    5.145038   22.807024   40.440567
H    8.574978   38.507637   46.997643
H   82.313240   35.251060   51.293163
H   50.316029   17.213886   24.427856
H   23.903931   81.396904   48.699577
H   33.788750   88.512337   16.312584
H    8.197972   19.328400   50.227486
H   91.419701   38.415043   14.645458
H   61.785015   69.380287   62.723984
