100
TIME:    2.495, STEP:  2495
H   48.595367   93.217186   96.861771
H   31.867332   40.019821   35.383778
H   22.641600   53.404114   94.049217
H   81.895386   29.857000    3.402976
H   72.823563   72.742767   98.055817
H   89.329231   98.505074   25.833807
H   22.207878   29.811913   85.565102
H   23.784218    4.451860   79.111687
H   92.296074   46.409363   43.035915
H    6.659567   52.207863    5.389738
H   68.176208   66.634277   99.418808
H   60.615578   48.752045   15.332277
H   84.555183   10.756495   77.145836
H   31.543373   97.385567   47.111340
H   10.848400   47.163574   30.839449
H    1.205188   93.507172   25.935038
H   23.473160   46.995338    0.517294
H   54.461769   73.368736   13.047520
H   84.125282   83.021759   94.809677
H   25.299431   52.828831   86.203865
H   16.219788    7.831633   89.524765
H    1.578430   47.396133    6.805953
H   52.432182   74.330544   60.965546
H   87.228958   66.605316   21.773109
H   40.347771   88.297577   54.970268
H   35.218746   53.264530   55.314758
H   46.932503   38.762959   49.476940
H   22.021338   72.897881   49.244236
H   65.422119   75.457985   39.231621
H   96.663414   29.089005   81.734154
H   14.249528   45.786175   11.983183
H   23.292854   83.577583   68.289421
H   46.102398   85.936516   22.566259
H   83.520576   45.070847   66.640656
H   18.752659   70.317230   76.655952
H   89.484665   80.480217   12.063115
H   19.102310   13.163420    5.061603
H   60.866249   13.288471   98.507561
H   39.758644   27.054029    2.528543
H   28.192652   78.610069   34.335354
H   64.733955   41.792416    1.125892
H    7.384820   23.834496   20.018461
H   32.731731   78.461716   81.689568
H   20.036444   54.588181   24.682188
H   40.232784   33.450901   69.614845
H   45.898640   10.505085   93.300606
H   61.224148   60.524384   49.407730
H   56.372662   21.071692   22.954353
H   37.960579   25.813663   44.948151
H   78.212761   68.722527    9.161831
H   43.354267   28.767702   79.723724
H   26.384539   32.221462   10.268978
H   60.635902   36.475586   57.965111
H   18.915821   66.502312   41.913300
H   42.133751   77.230606   21.576796
H   96.688034    9.909824    7.691116
H   54.422810   17.555138   93.282616
H   40.273773   41.265900   49.290726
H   87.052361   44.189022   19.940359
H   94.375153   19.561613   92.646858
H   17.087027   62.540958   19.866405
H   10.361061    4.719933   82.463943
H   43.467289   37.013420   62.391525
H   14.366121   55.366676   59.404400
H   31.352253   61.573589   27.915342
H   48.073372   18.239052   93.709221
H   87.389687   34.621685   87.520401
H    8.019073   60.229004   85.478027
H   81.253014   70.511543    3.749486
H   80.932190   73.635323   96.479370
H   42.805565   25.640078   32.220768
H   68.242065   68.720871   39.293938
H   44.313339   94.894554   97.772697
H   75.283897   91.490784   54.923286
H   82.465111   32.194309   90.535507
H   84.641487   67.480095   28.048096
H   93.484619   10.296503   35.175282
H   49.199963   87.578865   52.230610
H   81.156570   46.190128   45.516335
H   77.165810   73.072128    5.974755
H   59.707386   55.093578   29.108616
H   28.526146   60.521805   78.146950
H   75.660385   48.902008   67.536316
H   21.803417   25.661959   35.539124
H   30.844223   92.820084    5.890199
H   93.866821    0.699046   15.043748
H   33.790138   21.946106   42.514603
H   96.119736    5.538778   69.798988
H    7.460451   55.254372    7.787592
H   45.747250    6.622765   13.408685
H   26.128326    8.155049   86.151566
H   62.895702   83.147758   81.063271
H   45.367664    2.393049   11.935034
H   88.378853   64.574471   95.043938
H   13.453476   26.242599   73.419395
H   99.998322   97.207100   38.579086
H   64.560959   10.863372   93.699593
H   16.025908   37.481110   16.114170
H   89.857536   47.605259   36.055756
H   94.189224   14.617184   57.381622
