100
TIME:    4.751, STEP:  4751
H   96.032143   86.330482   94.796341
H   69.264320   62.315178   77.672180
H   61.420044   15.709983   67.577293
H   82.274048   36.909904   79.745125
H   52.616776   53.571106   36.884674
H   54.349873   96.060982   49.254017
H    3.971152   82.148102   61.987392
H   46.467064   99.624573   71.973534
H   36.839287   29.504211    1.027662
H   45.007423   84.600685   93.732635
H   58.328583   57.409306   82.108826
H   74.509499   61.833717   54.747490
H   40.895920   74.287712   52.938721
H   19.839600   90.431953   18.792902
H   38.290825   45.648712   22.395596
H   10.496265   96.189102   38.666931
H   42.060036   96.213196    5.890623
H    2.664980   63.648472   34.831493
H   19.266827   77.664322   13.664133
H   64.514122    4.923208   39.802773
H   82.345650   83.240326   28.294292
H   17.863342   50.391006   14.686707
H   22.311333   55.982643   96.417664
H   77.622101   93.662445   54.223175
H   59.660919    9.380852   71.627052
H   24.888582   86.204849   43.655514
H   52.395401   44.984196   94.233498
H   31.666546   78.200333   23.814226
H   14.477260   80.140007   32.589058
H   83.168060   73.252342   61.079384
H    3.035867   48.086529   33.494942
H   65.738258   21.247841   59.440178
H    5.010757   20.876413   25.804556
H   78.842331   38.321869   71.599220
H   62.674347   99.780777   14.031700
H   85.634186   57.547459    4.490641
H   35.481911   30.544754   82.825607
H   67.622612   72.009148   57.705265
H   44.532215   77.901543   83.905289
H   15.702692   67.411415   11.832731
H   10.554787   19.202581   54.277203
H    4.627796   25.084871   26.006144
H   52.163982   91.990280   44.643288
H   75.975616   92.389832   45.263161
H   44.541393   44.440399   62.666523
H   16.793293   53.534870    2.461182
H   78.851852   83.213036   71.071907
H   56.493145   44.303726   62.542885
H    3.908932   38.971577   54.956276
H   25.520374    3.044607   51.372208
H   43.182148   10.964951    3.509959
H   36.021477   22.881712   62.169006
H    7.421413   49.556641   26.937944
H   66.666679   29.687195   41.464256
H   62.513336   74.956062   40.757000
H   99.510788    7.536132   30.891556
H   97.445435   52.458687    7.847088
H   72.286270   28.214575   91.179672
H   64.976784   39.510941   46.746597
H   45.501179   92.965195   28.480843
H   59.397491   57.627048   43.970047
H   30.292536   83.720444   80.387039
H   96.605431   83.083176    7.680138
H   69.283302   67.643875   98.147720
H   20.897032   81.389954   38.009373
H    9.484203    6.086708   27.099524
H    6.386542   12.617724   96.439804
H   52.181740   89.251541   93.327873
H   93.690536    8.409760   62.259644
H   26.641928   87.104004   91.728882
H   71.166695   72.141861    5.155191
H   82.225189   93.848343    4.467322
H   97.216751   83.302376   39.933502
H   25.620457   48.727413   20.865047
H   91.236336   35.412937   61.556118
H   37.975204   12.066839   76.246780
H   98.314590   14.760872   75.072502
H   55.190945   40.064274   76.820457
H   89.340996   39.563541   70.692787
H   66.527161   50.204800   11.618284
H    3.841697   78.432938   63.945004
H   97.797844   75.255203   89.501488
H   18.385469   86.572815   82.405228
H   77.010452   18.712343   29.486572
H   20.995016   51.707962   87.196312
H   41.948376   83.567131   71.707031
H   84.463264   57.916519   50.089584
H   32.429291   24.917810   46.334900
H   54.280624   29.643663   89.333748
H   46.286694   13.805588   94.054764
H   18.453209   29.972546   33.794231
H   29.824785   52.799713   24.054701
H   90.001915   70.074059   86.406662
H    6.429396    1.415414   47.153660
H   74.448723   24.163803   25.258812
H   86.334686    8.120159   22.053841
H   85.490532   40.330685   63.954590
H   24.304838   56.689606   80.009300
H   82.386505   57.329990   47.091515
H   34.313717   56.713024   40.061520
