100
TIME:    1.244, STEP:  1244
H   33.195229    7.940207   98.007095
H   66.666115   72.193993   56.471371
H    1.138454   63.402355    8.733269
H   81.685410   81.396812   71.976555
H   84.028656   72.469612   31.974449
H    8.725945   99.860374    1.942663
H   87.772346   45.339085   87.735191
H   22.110352   96.224350   93.973656
H   23.048103   66.687851   21.781336
H   40.843971   34.245354   56.405586
H   84.541183   16.297260   19.921434
H    8.358837   86.046120    4.380179
H   64.130035   86.443535    1.485903
H   93.486351    1.241788   51.909855
H   95.631752   58.905682   90.974167
H   51.505981    2.926447   29.777817
H   24.051151   64.264694   86.618843
H   27.727982   34.205078   56.419235
H   64.635674   30.540712   28.901323
H   59.000610   79.396347    1.029980
H   90.455917   32.373337   23.480324
H   81.630608   45.741875   13.330363
H   69.134834   84.504845   96.756943
H    3.460448   51.601566   14.683582
H   85.091789   87.514717   45.740860
H   40.954914   90.542099   72.572037
H   54.807961   90.765335   24.652029
H   27.576347   14.505351    7.892107
H   38.220657   61.957340   98.368553
H   48.693401   60.050949   82.283257
H   65.037178   33.600281   10.972809
H   44.304020   18.143120   84.100777
H   57.984409   77.465477    9.866300
H   30.663841   59.717537   19.343515
H   49.850258   64.883278    0.480722
H   80.715607   82.206619   16.363905
H   99.115196   58.978371    6.487662
H   12.575327   36.185421   10.227776
H   94.794174   53.952263   22.895149
H   46.022278   95.723763   35.909275
H   50.226837   98.867775   71.652634
H   19.817558   67.690956   61.245319
H   21.956137   70.959839   91.328835
H   99.922127   33.619194    2.366127
H   48.747307   82.808487   62.562569
H   62.038174   86.644173   88.223000
H   49.215565   92.846909   38.253120
H   56.305851    8.191561   45.549587
H    1.395907   29.421204   94.849777
H   51.980450   49.683872   96.658653
H   43.449711   49.543571   66.533401
H   65.588951   48.305470   92.395004
H   34.684753   29.221863   30.619705
H   47.882992   86.908180   86.711380
H   41.725479   67.561508   10.962320
H   95.122757   11.224562   50.278107
H   75.115143   53.651955   74.302162
H   33.427429   59.407310   81.512527
H   88.388802   91.330078   15.980415
H   76.926941   23.405638   28.227257
H   38.173595   20.720467   17.404251
H   54.759155   16.366379   39.068153
H   58.613701   22.322159   48.214943
H   28.462126   48.561539   93.364571
H   81.699272   61.488949   11.412126
H   24.924263   80.430183   19.740339
H   87.759811   91.371368   27.123222
H   94.434044   88.682358   25.672995
H   18.902267   60.400421   82.211189
H   55.585503   10.712154   99.113617
H   82.529243   10.758947   47.227604
H   71.392838   10.239483   47.701935
H   25.880974   56.771511   29.850605
H    2.810642   70.657959   29.273979
H   22.150520   30.413763   95.701103
H   55.070141   87.301537   12.224660
H   79.902489   18.725115   13.046177
H   90.425705   69.379829   83.141678
H   21.180361   49.858250   31.559502
H   38.517502   41.203415   13.749379
H   35.226070   42.151409   54.339382
H   34.661312   52.351822   82.754715
H   96.509239   28.019831   48.384678
H   35.746143   18.612284   49.804359
H   91.756500   71.072205   27.160500
H   22.659832   54.750439   28.170540
H   50.238670   12.903999   82.861755
H   75.981110    5.697031   82.811104
H   81.498726   24.908010   18.022041
H   56.351883   58.095566   68.685738
H   74.932137   40.603970   59.732738
H   70.330360   89.067070   57.224144
H   65.101372   64.903183   15.153992
H   67.465950   88.690575   10.695603
H   35.085117   38.299934   44.671745
H   96.670853   46.606438    3.194580
H   63.859451   39.070934   65.645508
H   11.432693   26.829590   36.132507
H   49.450676   42.212688   40.846783
H   16.498032   46.750607   77.870796
