100
TIME:    7.290, STEP:  7290
H   24.329123   53.492836   92.471817
H   99.145401   99.897072   37.763012
H    5.079231   98.376289   37.767597
H   82.700211   32.303375   40.573154
H   29.874277   57.082989   68.043457
H   14.968690   93.310295    0.698898
H   70.899948   53.594341   60.540646
H   46.906670   19.279964   38.850456
H   74.425758   85.389542   41.207478
H   75.643837   21.058596   93.150734
H   22.156982   59.571522   37.539902
H   77.602829   89.100800   74.019020
H   78.890572   20.731419    0.646843
H   94.124413   82.606056   12.011684
H   69.150337   18.854088    0.327618
H    8.407825   74.118896   27.907526
H   37.888741   64.146179   37.025814
H   56.961002   40.107513   46.816811
H   58.806225   84.177719   47.426441
H   96.113754   50.999828   12.669657
H   31.677780   30.474815   59.377453
H   61.279739   53.761566   98.467468
H   88.410194   35.333122   23.775194
H   41.711906   24.037813   65.656052
H   68.852119    8.025879   90.378212
H   13.234341   11.192795    4.860822
H   33.453785   39.440392   44.614178
H   17.432980   96.712273    7.740154
H   69.684837   10.498032   12.570143
H   80.524429   10.412281   62.922630
H    2.961686   75.763519   32.617409
H   26.052181   51.094570   24.392220
H   83.854988   35.110771   54.537727
H   86.121284    5.637750   64.635132
H   99.527534    7.714703   68.582382
H    6.345159   56.412994   96.507149
H   79.004471   37.560669   82.888885
H   62.681190   25.541378   36.876167
H   37.359379   22.579523   37.856827
H   76.556404   29.717665   11.596128
H   37.031235    6.322255   14.093872
H   85.852379   70.190887   52.126553
H   74.024994    7.218449   28.038258
H   13.853264   35.004906   93.513298
H   24.302647   44.265095   79.934883
H   84.024132    1.962127   12.777678
H   98.687790   21.293262   95.440666
H   56.632565   70.454620   19.641399
H   78.123177   28.692257   53.674370
H   78.794678   41.691898   73.816170
H   43.001026   65.841080   30.273300
H   59.422680   87.280899   95.493500
H   60.090488   64.278625   79.477516
H    7.874718   88.259903   53.503555
H   60.354355   97.465202   62.355701
H    2.675445    4.865351   44.457993
H   58.404942   79.196449   49.327156
H   83.227463   88.436592   25.782145
H   65.222466   46.795620   51.832008
H   77.953484   88.121521   56.265648
H   19.559347   39.552734   46.009651
H   40.181587   60.087784   65.506561
H   68.979774    9.826241   33.573273
H   43.631214   81.474792   29.215809
H   21.674637   78.604614   74.454826
H   53.511169   79.865898   77.225540
H    2.677723    0.397804   19.023493
H   76.795525   34.460869   14.706756
H   20.234024   25.973419    3.015613
H   78.080879   14.803217   86.381622
H   90.541374   99.390106   74.702583
H   72.953026    9.542916   90.400520
H   31.670099   57.718082   74.835022
H   69.724449   88.035278   70.006592
H   13.638143   39.049320   54.034367
H   97.995064   74.794334    5.405485
H   28.870678   94.831978   20.030436
H   74.477783   74.045937   17.038286
H   11.096208   32.105694   99.013237
H   42.016159   11.898433   92.881264
H   53.528664    4.700753   15.696218
H   88.332436   91.747421   77.122353
H   78.984428   29.032629   24.205719
H   51.689144   35.980587   97.588951
H   97.367233   92.888390   41.068565
H   83.511765   76.829254   48.022995
H   54.037403   73.310081   71.158669
H   73.272270   21.720457   19.991943
H    6.970793   88.277061   68.568001
H   21.804552    9.344280   84.816528
H   22.359577   67.069160   87.413254
H   17.685076   43.756729   72.427544
H   52.756504   46.256283   82.751472
H   51.816216   55.448692   18.352259
H   30.553642   96.735153   83.603241
H   96.045670    7.858174   90.910774
H   83.956627   86.037994   17.934277
H   24.205935   47.167934   32.535545
H   61.434258   68.282188   34.423534
H   92.021629   91.561264   95.471008
