100
TIME:    4.862, STEP:  4862
H   88.525551   76.151192   94.694717
H   66.198677   68.329834   84.670654
H   63.328026   23.695477   66.274818
H   82.292679   32.336845   73.661263
H   51.622559   62.468246   33.874924
H   52.628201   95.940727   60.247143
H   98.153572   89.642838   70.667740
H   37.742683    9.227324   61.782200
H   34.110695   18.832047   94.040947
H   41.973961   86.194481   98.078735
H   48.003632   61.875660   71.416336
H   70.273491   67.397606   46.846260
H   33.812759   67.575478   41.909180
H   14.343820   90.089821   27.240358
H   39.640724   35.733643   17.059937
H    6.032922   86.480667   29.452946
H   33.134102    3.555175   15.995390
H    5.038601   58.248028   30.983461
H   20.995697   82.320374   19.511721
H   61.523705    2.565966   47.360176
H   75.758751   72.190460   25.281578
H   28.505020   50.538361    5.234055
H   20.829323   55.079887   93.241928
H   67.309006   94.991913   45.978966
H   55.690826    0.577713   72.446815
H   24.382582   82.924103   33.217930
H   42.823311   40.369640   96.435341
H   22.300667   83.381439   27.483683
H   16.890953   90.210899   27.342274
H   87.424393   70.505119   69.903694
H    7.404609   58.039707   24.712975
H   72.746895   18.181351   49.164345
H   12.829630   12.755423   35.804314
H   83.532257   28.149353   66.922844
H   59.915268   91.390060   20.790512
H   95.283340   66.241356    4.141416
H   46.127823   26.479389   91.572006
H   63.034489   69.978371   65.538063
H   39.846523   75.482903   73.148438
H    5.247747   57.019836   20.566004
H    2.968943   23.010923   56.892315
H   94.651604   30.066542   31.220278
H   53.120090   92.655914   52.660538
H   68.887375   94.251343   56.116142
H   34.913410   40.061272   72.164940
H   15.361153   55.652027    2.912401
H   79.719040   89.249474   72.137260
H   56.499073   45.446991   69.410942
H    7.153369   29.778881   50.528030
H   27.848400    4.734098   43.609016
H   43.173679    0.248344    4.680111
H   41.415993   12.581743   54.881752
H    9.723847   50.200256   20.491201
H   64.095604   27.875755   46.362511
H   53.675476   84.684822   41.701252
H   99.649673    7.419371   27.112854
H    4.482458   49.255852   18.404243
H   64.020889   17.731684   88.320663
H   73.731651   44.200867   38.224617
H   38.176662    1.496623   25.323738
H   66.399353   52.465420   35.315956
H   26.353354   82.687271   75.365143
H    4.141072   75.508835    0.068514
H   76.905067   68.248535   95.134583
H   25.302835   72.524994   48.346180
H    2.665677    0.568756   33.662712
H   97.480682   16.455097    1.798875
H   44.514244   95.599625   98.634315
H   99.222244    0.434024   55.297585
H   28.890772   92.686523   91.495148
H   67.642052   64.589539    3.823598
H   73.072296   90.164490   12.594241
H   89.979462   77.811317   37.087196
H   23.177258   41.702686   14.270103
H   96.588509   35.571301   69.970551
H   40.599632   19.180910   68.777451
H    8.392675    5.140087   77.035530
H   60.405926   32.805813   82.950050
H   94.664375   39.237499   71.930901
H   61.083527   44.159046    2.055666
H    6.013794   79.581284   70.579323
H    6.126380   75.980118   80.219872
H   25.406809   88.429138   92.975769
H   84.647461   28.211180   19.348778
H   15.589931   44.764534   76.436073
H   39.393391   87.643929   79.415176
H   91.876701   49.845917   55.382477
H   34.216171   16.031256   45.180626
H   56.584091   23.463682   88.425911
H   36.472401    9.238457   98.023163
H   22.995781   35.965939   36.138348
H   38.037663   61.148087   26.169317
H   97.117256   73.405617   94.990463
H   17.158127    8.148480   54.637386
H   72.529732   14.220787   27.809139
H   95.502823    3.737109   16.320580
H   76.679771   46.700787   57.570938
H   24.712179   57.634705   78.232582
H   77.098694   57.808468   37.793808
H   41.208027   53.865025   29.368288
