200
TIME:    0.885, STEP:   885
H   29.290522   60.334377   26.368677
H   33.712830   42.294422   16.082071
H    4.619027   97.369698   77.117912
H   39.584106   84.512672   27.633106
H    8.362013    0.076677   44.384953
H   68.635620   35.308681   46.458370
H   12.704123   54.846481   62.135838
H   17.342716   16.737560    2.177872
H   13.622009   77.836540   31.984648
H   88.155975   65.862991   70.631096
H   34.675186    8.372462   13.344276
H   33.444962   59.238819   43.475422
H   27.004902    8.414907   34.856285
H   73.917984   55.928226   73.346581
H   88.481522   76.909836   41.391582
H   10.500043   99.390793   40.408993
H   14.552737   37.926254   84.119629
H   21.246557   14.174843   32.037308
H   86.485725    6.350965   51.978825
H   92.108292   70.846947   12.467239
H   65.825745    8.955824   96.290428
H   75.669670   73.468376   45.718925
H   75.690445   57.851784   33.659790
H   22.270044   93.939728   89.563568
H   31.281395   38.644886   22.395023
H   18.127169   90.961357   85.653717
H   11.386675   71.738884   75.015320
H    9.313334   96.737061    2.428439
H   38.234749   36.924629   34.561527
H   63.902569   38.043495   76.314270
H   12.519393   78.396431   16.983397
H   20.196945   78.623520    9.483546
H   11.538620   22.864185   81.057610
H   75.079430   64.281616   49.564217
H   17.035007   63.149174   29.312218
H   11.988229   35.216248   86.868492
H    4.776930   60.507607   90.797157
H    1.010836   61.439827   86.167564
H   29.198677   23.304556   58.768848
H   83.897102   37.036091   38.501068
H   80.696228   75.092949   22.933239
H   45.443649   29.581409   20.705103
H   65.088394   72.964920   74.278595
H   35.844345   94.560722   41.816040
H   50.815342   95.974068   67.640053
H   31.983078   97.052567   49.702705
H   92.128922   94.611588   10.320216
H   74.413040   65.540764   24.460098
H   12.024810    4.275605   61.631363
H   39.035637   20.712252   78.425377
H   62.864685   62.332245    2.307070
H   96.482399   46.799664   77.408989
H   69.574303   75.977135   16.355913
H   12.806827   95.795074   91.254745
H   49.897415   62.040337   69.913406
H   97.037651   56.459110   99.768982
H    3.589772   19.186256   42.735722
H   74.455490   73.573555   93.661140
H   14.571018   86.937332   22.726276
H   28.185402   92.367348   55.070747
H   48.330570    2.792297   23.391127
H    1.529019   17.952841   54.011093
H   89.216896   38.567497   63.124336
H   39.754387   66.072556   18.068600
H   81.716835   85.694626   44.305286
H   13.437746   41.619408   44.457077
H   62.082130    9.556473   99.161079
H   93.729439   92.916374    0.041446
H   39.464828   14.569497   53.815933
H   41.524101   52.871918   50.948147
H   58.182209   87.747948   90.534225
H   14.012915    6.868208   40.249847
H   97.964981   36.813992   77.897667
H   28.878853   94.787247   79.350563
H   86.998886   11.312627   37.284843
H   69.616898   96.305588   58.662670
H   92.701370   53.962017   63.021851
H    2.665497   17.715038   25.911797
H   16.437885   58.425041   20.640945
H   58.555817   87.069725   63.672943
H   70.743393   19.200893   91.557693
H   54.998177   56.990059   67.917503
H    8.483257   20.741409   71.407837
H    3.640719   82.950829   14.873341
H   15.939640    6.144495   39.503292
H   42.838352   63.206802   14.356059
H   64.763329    4.128146    3.250060
H   69.967644   94.538559   35.769993
H   85.428268   73.627083   79.493591
H   20.213520   14.958745   47.769482
H   14.205379   40.460861   77.885567
H   79.562592   94.194565   12.441624
H   77.901161    9.587690   77.359886
H   31.104889   71.260849   86.815201
H   41.467926   48.201340   94.803299
H   42.561104   42.130169   98.735214
H   88.055061   91.969032   26.107758
H   95.973587   39.633114   56.110683
H   22.402657   63.316811   55.167034
H   78.419296    8.407771   27.407877
H   38.643887   98.259949   99.311958
H   14.555948   86.414833   62.306747
H   36.549644   13.597658   39.515785
H   52.868507   69.130356   15.776738
H   24.483723   18.996380   45.999153
H   12.958675   95.194038   13.692602
H   89.402863   36.933239   51.847237
H   60.950241   59.039104   93.800941
H   89.188278   31.947926   30.321629
H   25.086432   19.067335    8.694059
H   55.680737   90.461807    1.249655
H   11.892144   79.564880   97.858154
H   45.891476   87.759438   79.905716
H   61.039268    5.492001   58.321980
H   42.325981    8.826941    4.156837
H   87.715973   86.929619    8.032258
H    6.055658   17.525059   91.699326
H   37.498676   58.744049   21.085594
H   43.357075   81.929649   51.662636
H   87.804230   59.548092   73.404755
H   47.286446   26.045589   66.384308
H   90.459541   12.200451   67.160515
H   47.786629   94.619156   43.163788
H   94.574623   44.108768   89.619408
H   57.616371   92.982773   71.480774
H   71.352180   79.999931   13.077902
H   79.354149   52.201553   46.144867
H   61.320282   92.628716   40.450077
H    0.405241   29.136177   70.191360
H   99.008049   21.092199   77.490112
H   74.645752   62.155609   28.060429
H   56.942657   92.448624   24.537670
H   90.331581   13.975143    2.173809
H   69.293556   29.540024   57.645191
H   36.289486   89.707474   26.777946
H   45.179008    0.799053   74.179230
H   69.960564   88.208122   87.447922
H   96.719978   44.081924   73.007065
H   63.172440   53.353752   71.397537
H   43.797333   78.156227   77.535355
H   82.549767   44.100826   35.745255
H   27.545412   60.608547   61.282883
H   34.271038   68.631844   77.628685
H   28.157799    3.179723   88.812752
H   70.619972   48.375664   70.159775
H   69.573624   73.087708   98.954689
H   59.986229   93.953163   42.663574
H   25.040329   49.409332   65.124413
H   82.428314   37.862400   91.532448
H   30.022783   95.716690   65.859627
H   53.486530   72.264008   46.474907
H   60.938763   89.261963   27.939487
H    6.139556    7.720966   80.822914
H   26.960005   15.947925   60.012917
H   39.189224   70.913940   72.421494
H   82.649551   45.128216   73.905952
H   66.062820   80.227486   88.393112
H   55.216274   26.311119   24.835169
H   82.861145   99.303833   78.684326
H   56.448326   30.626461    2.993264
H   60.291683   58.205276   66.266342
H   13.319763   19.713739   29.956226
H   92.983406    6.448021   36.963860
H   34.950371   39.127815   43.603870
H   52.778381   43.974331   16.162109
H   23.026453   43.916435   58.775955
H   63.793228   87.134529   59.059372
H   24.195663   60.278706   74.684311
H    2.837780   26.072651   35.333897
H   55.907673    5.592270   83.140015
H   67.042908   13.304364   35.921944
H   23.880386   41.489567   59.438801
H   50.135273   49.738129   72.275528
H   63.283283   59.111225   89.203911
H   41.459381   90.184479   68.903549
H   20.817711   51.149464   23.917515
H   28.791672   73.071129   13.888340
H    7.446558    9.815979   73.127731
H   59.105782    6.385006   61.591797
H   55.619022   61.373970   95.483856
H   69.641960    8.303683   26.723108
H   32.237431   30.893398   93.162956
H   35.936157   89.485939   18.845848
H   65.527245   26.413818    0.919130
H   93.863991   60.358727   75.739517
H   12.763141   41.666351   87.182350
H   53.811249   93.476685   13.556824
H   59.433769   94.545723   48.096172
H   87.938850   64.049660   73.915009
H   61.342678   54.764668   73.852127
H   78.631691    9.684605   74.695442
H   42.365345    2.457762   16.408846
H   18.427418   32.868877   72.582825
H   23.835461   89.272667   46.311996
H   62.759991   25.445860   19.706423
H   76.902847   11.966149   20.729559
H   13.748666    3.147223   25.237104
H   10.164134   84.587082   28.776386
H    3.312100   13.416656   49.170403
H    1.280415   13.140239   88.787727
