100
TIME:    7.180, STEP:  7180
H   31.767668   63.580421   92.572525
H    2.183157   93.936836   30.826820
H    3.188334   90.462318   39.059177
H   82.681747   36.835236   46.603046
H   30.859957   48.266003   71.026093
H   16.674725   93.429466   89.805618
H   76.665482   46.166286   51.938503
H   55.552452    9.763759   48.950630
H   77.129768   95.965561   48.131992
H   78.648293   19.479158   88.843788
H   32.388916   55.145405   48.135223
H   81.800674   83.587036   81.849068
H   85.904884   27.389057   11.578220
H   99.571037   82.945107    3.640334
H   67.814278   28.679832    5.617411
H   12.831005   83.739868   37.038574
H   46.734261   56.870846   27.012079
H   54.608631   45.460144   50.629448
H   57.093349   79.563614   41.631535
H   99.077927   53.335415    5.180377
H   38.205338   41.425972   62.362606
H   50.733932   53.615540    7.834917
H   89.878853   36.227745   26.922739
H   51.932930   22.721895   73.825150
H   72.786446   16.749710   89.565834
H   13.752987   14.435173   15.212556
H   42.939640   44.013374   42.431332
H   26.714481   91.577843    4.103965
H   67.293022    0.518093   17.769613
H   76.306442   13.134964   54.177818
H   98.632515   65.899170   41.320259
H   19.106686   54.133434   34.575478
H   76.107185   43.159019   44.628059
H   81.473610   15.718436   69.269379
H    2.265219   16.043251   61.890068
H   96.783134   47.797424   96.852913
H   68.453629   41.588989   74.221283
H   67.227913   27.554699   29.114098
H   42.002857   24.975954   48.516769
H   86.917580   40.015804    2.941532
H   44.549088    2.548137   11.502529
H   95.122551   69.759521   46.511242
H   73.078339    6.558601   20.093235
H   20.876873   33.158592   82.757683
H   33.844231   48.604771   70.522041
H   85.444115   99.864365   12.330786
H   97.828415   15.310788   94.384911
H   56.625851   69.321655   12.835314
H   74.907234   37.802135   58.062721
H   76.485107   40.017628   81.506905
H   43.008579   76.460739   29.113899
H   54.076763   97.487656    2.714373
H   57.808613   63.640808   85.865761
H   10.421791   90.054184   48.649429
H   69.112595   87.825768   61.419956
H    2.538440    4.981060   48.202652
H   51.431751   82.370430   38.865273
H   91.418381   98.824623   28.615816
H   56.547432   42.147106   60.276375
H   85.212852   79.667084   59.394310
H   12.620249   44.667862   54.585777
H   44.085701   61.111649   70.483215
H   61.511997   17.332592   41.116302
H   36.077274   80.875580   32.202641
H   17.308525   87.389709   64.211143
H   60.268677   85.334343   70.721481
H   11.503466   96.594452   13.712405
H   84.393944   28.169722    9.448119
H   14.751360   33.877319    9.914748
H   75.849327    9.274278   86.614105
H   94.034264    6.874576   76.021858
H   82.008430   13.199527   82.337990
H   38.842209   63.158833   77.654846
H   72.146477   94.997559   76.542542
H    8.339643   38.887348   45.694065
H   95.395119   67.744774   12.806931
H   18.880024    4.352591   18.079638
H   69.309784   81.238167   10.963250
H    5.821459   32.428799   97.786278
H   47.410751   17.890835    2.357846
H   51.375191    3.562752    9.121453
H   80.077736   91.034073   86.325386
H   72.027184   27.193029   13.729614
H   44.121777   26.567505    7.635696
H    2.723219   99.770103   51.731865
H   86.042892   72.789185   40.384293
H   46.690754   81.307976   65.913460
H   71.503166   30.522757   21.132462
H    4.687764   94.401787   69.467659
H   31.530008   13.870266   80.883881
H   17.857929   61.129471   85.090256
H    9.546190   35.483566   70.331139
H   45.705265   42.955578   74.245003
H   41.185646   48.775108   10.935258
H   32.455666    6.588249   81.075470
H   86.960129   12.201833   96.592384
H   92.688011   79.725281   24.260838
H   24.418261   41.725506   34.743568
H   66.674431   67.807182   43.637478
H   85.188591   94.384445    6.067572
