100
TIME:    8.986, STEP:  8986
H    9.635840   97.962776   90.919083
H   52.304581   91.801651   44.701389
H   34.231983   20.392605   17.858376
H   82.984879   62.427361   47.609970
H   14.676889   93.024780   22.058041
H   88.670166   91.472893   68.660400
H   82.013329   68.116875   93.170067
H   13.604416   66.004074   83.129189
H   32.734840   22.325146   34.450260
H   29.320219   45.410648   59.558968
H   64.399200   27.812469   74.171837
H   12.869461   74.112404   53.295540
H   70.742233   18.077705   32.103752
H   10.148820   77.378517   41.079098
H   89.749947   67.359016   18.764534
H   40.216248   25.780663   87.124084
H    1.506256   76.324211   91.419380
H   93.224380   57.580162   88.027420
H   85.226044   55.328716   36.778690
H   50.415455   14.986273   28.141230
H   31.034737   61.633514   13.349195
H   23.876917   56.013031   54.037369
H   65.766151   21.544573   75.250137
H   84.129150   44.326874   39.695667
H    8.194087   73.526260    2.902226
H    5.236538   61.196213   45.259647
H   87.206261   68.941360   78.264206
H   74.328491   75.875809   63.804482
H    6.562648   64.372185   32.398155
H   45.555687   68.435898   97.750275
H   69.713020   27.848042   98.435379
H   33.138721    4.240128   67.385048
H    3.317909   11.024082    7.326802
H   57.782150   50.209381   93.186226
H   57.319038   79.303719   71.769196
H   53.774952   89.254120   91.176094
H   41.673256   75.448006   16.526815
H   92.584557   94.503487   56.557175
H   65.772148   85.628380   73.502335
H   16.813036   70.944801   45.034676
H   21.121901   64.511139   54.050747
H   42.922821   76.841766   38.712086
H   88.620697   17.392536   50.540295
H    5.558878   63.478928   59.336735
H   77.186371   77.359520   25.067965
H   62.131683   34.305004   19.667936
H   11.945794   13.527414   11.725452
H   56.736080   87.922882   24.579899
H   27.700180   88.229958   86.018982
H   14.400122   67.507866   55.232494
H   42.884571    2.102798   48.154999
H   41.849041   29.904541   84.160957
H   95.261360   74.112610   80.980301
H   68.593140   60.593758   28.342915
H   25.316460   46.095245   76.771729
H    4.787811    3.081324   86.722137
H   65.923874   30.259438   10.630879
H   56.939636   28.270670   82.095848
H   98.985130   18.459261   21.629942
H   66.034157   18.481594    8.027367
H   26.544630   60.678890   13.777422
H   79.987206   44.301651   88.766869
H   84.120514   94.094139   17.273468
H   60.093563   90.713562   83.169876
H   88.992813   43.147266   32.396152
H   49.324654   95.553032   77.506813
H   66.604874   59.029293    0.905440
H   59.641281   31.457005   95.785370
H    4.761836    4.109673   96.645691
H   12.525985   99.989151   82.784454
H   36.680805   83.992043   54.361763
H   33.292213   53.229881   14.716392
H   21.087875   73.825249   31.348614
H   32.392147   80.695473   69.236061
H   95.336395   41.546635   82.626266
H   38.092735   83.491570   91.285721
H   82.903152   48.039852   50.112091
H   54.152256   63.154015   10.712096
H   92.425392   27.124004   17.940287
H   58.843346   19.509310   46.769249
H   86.731300   22.246653   17.064384
H   15.598631    2.748781   35.235390
H   86.258568   57.395908   85.724205
H   68.370445   81.110573   42.684696
H   14.787643   86.792221   76.661774
H   44.479900   39.124588   65.798309
H   67.309471   49.996758   52.030373
H    0.548595   86.006142    2.407111
H   42.170658   93.846611   54.696907
H   71.856430   39.568481   45.443871
H   91.766808   58.646862   23.230003
H   43.171902   71.312561    4.748541
H   61.473423   97.138725   13.905757
H   15.727682   58.343128   32.709698
H    1.226735   44.818966   22.574450
H   36.128372   40.884094    3.310207
H   49.335716   83.366966   20.395248
H   20.932253   31.088108   98.485191
H   80.640800   75.605919   92.365288
H   97.367264   48.037693   32.090168
