100
TIME:    3.809, STEP:  3809
H   59.735016   72.716644   95.658768
H   95.315254   11.261946   18.270216
H   45.227982   47.938423   78.630730
H   82.115936   75.719109   31.378374
H   61.054184   78.065651   62.426880
H   68.958382   97.081520   55.964706
H   53.339573   18.538990   88.321693
H   20.506409   18.129292   58.465092
H   59.995445   20.073700   60.325260
H   70.750862   71.074959   56.848122
H   45.951126   19.505650   72.846672
H   10.460381   14.615908   21.800085
H    0.972579   31.257736   46.545097
H   66.481575   93.335457   47.107319
H   26.833302   29.791798   67.678841
H   48.373215   78.579948   16.860975
H   17.810158   33.906338   20.136648
H   82.535240    9.468974   67.492371
H    4.595000   38.146103   64.033340
H   89.898216   24.927916   75.667076
H   38.245255   77.019714   53.858582
H   27.552887   49.140488   94.906769
H   34.888390   63.643867   23.370552
H   65.144127   82.364655   24.183521
H   93.353058   84.086639   64.670143
H   29.191370   14.114640   32.153374
H   33.624233   84.141861   75.547585
H   11.149873   34.230942   92.676048
H   93.993439   94.674545   77.119026
H   47.046753   96.566612   86.193451
H   65.965477   63.614925    8.022987
H    6.259833   47.271568   46.645836
H   38.658245   89.798103   40.941757
H   39.041336   24.650520   11.284348
H   86.089233   70.988884   56.668610
H    3.739208   83.702606    7.538878
H   45.131462   65.041977    8.599595
H    6.560256   89.243309   91.232445
H   84.293610   98.427299   75.191963
H    4.428574   55.598099   37.718395
H   74.933746   86.880035   32.084087
H   89.289902   82.808517   81.751587
H   44.049984   86.341385   76.601158
H   36.128067   76.607422   53.157227
H   26.253458   81.607208   82.056946
H   28.946323   35.567646   98.633919
H   71.492477   31.984886   62.029236
H   56.442837   34.601425    4.257267
H   76.369675   16.988640   92.531067
H    5.763614   88.712425   17.258427
H   43.254017    1.908748   93.578308
H   90.243500   10.292175   24.007915
H   87.885155   44.094604   81.649086
H   88.486076   45.059952   99.898041
H   37.515427   92.398621   32.743618
H   98.332138    8.527502   62.959457
H   37.725544   79.639503   18.255178
H   42.429924   17.174496   15.443832
H   90.684898   99.707611   19.063751
H    7.664966   20.560156   55.273567
H   99.974831    1.437102   17.416775
H   63.725761   92.488449   23.008636
H   32.652966   47.364067   72.275902
H    4.596172   62.514519   23.725338
H   83.508644   56.626286   50.284885
H   67.352272   52.916115   71.401611
H   81.965073   80.048615   50.961163
H   17.252281   35.378616   48.294827
H   46.743134   76.095886   21.338230
H    7.557142   39.724342   93.712463
H    1.078594   36.235893   16.456348
H   59.896729   25.112015   35.498699
H   58.637695   29.897556   64.088615
H   46.361553    8.337944   76.836418
H   45.818073   34.068989   90.145668
H   15.703059   51.694664   39.632099
H   12.787107   96.407516   58.413288
H   10.934077    1.658828   24.796335
H   44.167366   42.330494   60.182945
H   12.724825    1.506866   92.772545
H   85.413223   68.687515    7.644198
H   27.118217   69.103226   68.271240
H   58.794514   70.836761   92.688416
H   12.203730   38.103706   15.524091
H   66.862610   10.628586   78.512634
H   63.631222   48.966324    6.291696
H   21.549231   26.407600    5.171145
H   17.268446    0.336679   56.130630
H   34.732285   82.093422   97.038094
H   29.571505   52.564484   60.377769
H   79.902557   79.105965   13.900918
H   60.123459   81.960503    6.104947
H   29.617809   41.806480   13.560343
H   15.381622   44.277061   83.639565
H   90.734215    8.541935    3.614465
H    8.529418   45.317574   70.709084
H   60.261780   86.271431   18.130037
H   20.847944   48.669037   95.087395
H   27.261284   53.269398   25.993095
H   75.801903   80.887550   30.806620
