200
TIME:    0.136, STEP:   136
H    6.275434   62.820148   13.561241
H   27.037329   31.359802   85.675194
H   20.317516   64.586090   40.225639
H   14.336862   75.758186   47.219269
H   16.314365   81.093384   55.153770
H   93.001892   55.637718   68.628044
H    1.852482   55.377922   47.638363
H    0.558039   84.395416   28.763889
H   83.204903   89.065369   50.256496
H   14.522213   76.355675    0.174616
H    8.568668   92.372505   89.675171
H   30.347748   39.246933    7.786842
H    8.621623   83.556343   65.554131
H    9.319546   52.768154   37.254330
H   24.643064   71.143990   43.234482
H   32.331791   30.251431   56.566505
H   79.314957    2.847710   20.481411
H   39.031815   78.167465   45.371899
H   61.565159   33.466991   40.952858
H   89.725380   81.132896   41.502277
H   56.836967   71.566666   30.605183
H   92.344337   44.839149   74.582443
H   98.119530   63.297623   51.631630
H    6.417878   87.130623   91.914040
H   98.726097    8.521160   49.121349
H   18.747183   57.721134   10.391424
H   96.881966   56.709965   44.900345
H   92.123566   65.839211    0.457622
H    6.688328   59.690865   38.947342
H   97.749069   17.978319    2.223348
H   13.497272   47.104282   16.067661
H   33.817257   61.068832   91.042641
H   29.636177    6.747692   71.908829
H   99.868568   63.464455   36.472488
H   52.979282   94.098373   35.010166
H   36.458443   52.293198   78.283913
H   83.279480   76.673691   85.174171
H   38.059284   42.065098   19.843483
H   56.919312   50.124706   42.119896
H   91.080124   40.116161   67.758881
H   80.473366   10.081970   98.072098
H    8.162798   45.287704   42.914909
H   78.574417   90.171028   46.466526
H   37.512955   58.183205   15.028808
H   25.223707   73.122116   40.610863
H   42.523323   16.545097   41.556805
H   78.014313   31.307365   93.898613
H   92.647743   65.552193   51.386429
H   83.058334   32.698818   61.091351
H   65.838913   17.332174   10.112417
H   80.682236   71.812462   31.990345
H   25.113733   33.907940   61.305283
H   49.372292   97.398491    6.567595
H   23.954430   79.988998   80.163063
H   81.600998   78.697861   94.136818
H    6.638861   74.912132   75.242706
H    5.727286   16.351906   50.770191
H   66.272446   56.161732    7.180511
H   30.375666   72.468430    4.611127
H   45.508656   96.573158   68.916779
H   50.756340   17.405474   45.275047
H   88.068100   16.178514   48.269154
H   68.582138   23.052034   88.393585
H   21.606216   65.003960    1.345502
H   69.676559   74.528656   13.676817
H   42.819260   12.520729   30.993912
H   90.059914   25.355698   83.686440
H   97.923820   91.213478   85.212532
H   12.823277    4.447837   63.296150
H   45.835629   39.817333   50.988148
H   58.510788   74.793365   70.499481
H   35.063190   26.555490   45.492825
H   74.193008   23.865124    2.978071
H    4.477202   11.250642   57.545193
H   77.878677   99.187965   72.502792
H   50.685036   22.748325   63.557068
H   95.867157   26.078524   73.616646
H   30.407276    4.076155   51.523811
H   10.739880   25.059835   37.241863
H   69.843170   91.246964   99.193756
H   38.954098   31.859755    2.677342
H   22.063568   70.460426   91.072319
H   11.405467   12.525508   93.322624
H   28.065500   58.458839   90.461884
H   42.611679   98.224121   60.729492
H   21.737175   89.413116   29.947769
H   31.194056    2.567396    1.532902
H   76.196358   22.415026    7.519542
H   62.506775   71.792000   76.787849
H   23.965034   81.385597   56.009670
H   45.602402   33.994999   81.217072
H   84.779854   87.622986   96.098557
H   42.319233   18.035027   98.691803
H   64.691467   98.170036   66.249016
H   22.489632   58.333000   63.608299
H   73.578957   25.384071   33.951481
H   77.894829   17.876310   93.850159
H    9.753717   26.822636   47.608891
H   39.374474   70.819839   52.512688
H   65.396141   96.237320   27.225016
H    5.226181   77.550903   64.042580
H   86.704994   75.083145   66.438271
H   21.023573   40.970612   29.049427
H   16.878511   67.747467   86.032425
H   25.476603   28.839462   21.715740
H   83.305855   31.864695   48.759819
H   60.731731   28.805429   56.743240
H   65.363747   30.281303   22.763044
H   70.153557   41.402428   94.103661
H    1.025900   29.510431    5.028262
H   45.826225   96.970528    0.722679
H   81.817993   60.729668   89.326530
H   58.900345   79.067810   96.197517
H   63.576469   21.639458   77.635864
H   67.320839   77.637878   30.419189
H   18.282742    8.839823   74.242676
H   36.850880    6.978251   82.967697
H   41.298763   21.877491   36.057365
H   14.912711   53.809010   88.679672
H   68.038063   44.599178   45.463150
H   39.469124   21.068333   90.927727
H   22.776493   29.943714   45.128990
H   29.729071   26.208797   20.943991
H    5.609576   71.061562   22.419449
H   80.028313   11.527062   96.252769
H   43.912167   59.506695   27.539427
H   97.971718   48.704330   75.071243
H   77.703514   86.754295   34.124218
H   91.187874   56.248226   87.260323
H   62.704361   24.642281   64.729820
H   44.410774   88.899078   99.436935
H   85.691887   85.019882    6.874433
H   92.777351   77.534859   96.601532
H    6.020230   10.336445   48.426849
H   99.288406    3.250585   61.195877
H   65.128036    1.760325   85.213768
H   68.720535   86.299507   50.161354
H   90.331261   67.467751   84.841621
H   43.594849   42.879227   71.574684
H   43.391609   14.077899   98.347260
H   45.468914   66.127319   11.550546
H   62.026016   37.850883   43.822483
H   58.348732   54.846775    2.892051
H   62.478584   30.292450   76.401039
H   35.413448   73.216232   45.667789
H   42.129555   60.183708   34.827095
H   42.271538   97.233238   48.026554
H   45.492226   77.289970   69.421654
H   62.405003   69.134079   98.978333
H    6.134315   87.520340   93.887032
H   79.885994   59.543713   52.129322
H   29.409586    9.987356   51.411453
H   71.344391   35.727322    7.115644
H    7.160662   98.755386   78.522530
H    9.488544   51.132488   58.871529
H   60.414757   43.271030   50.861343
H   58.222637   57.764904   79.524338
H   44.567459   38.328537    7.287610
H   17.141676    2.126200    6.461662
H   64.845375   61.187225   74.249985
H   52.934372   88.634544   86.181084
H   48.487041   23.595257   36.444946
H   60.742672   39.104156   37.275295
H    7.457258   17.124454   75.648499
H   59.949974   18.559462    8.802671
H   10.121871   67.747963   62.870335
H   76.690666   99.249092   51.119190
H   23.541363   26.200783   43.712177
H   92.659813   28.508421   37.102509
H   21.726891   11.244542   91.574493
H   81.351807    4.397018   35.984802
H   49.755714   69.309662   57.138748
H   35.663513   81.922989   93.350296
H   72.503380   77.037323   71.835037
H   76.271606   95.818893    4.121198
H   97.696304   47.099083   23.186968
H   36.486134   49.672340   82.557442
H    0.808276    9.101677   63.550365
H   78.261238   23.797228   70.351212
H   91.247734   53.339500   84.917900
H   83.316559   81.462547   44.137360
H   17.129965   29.979092   65.819473
H   70.422867   90.273666    4.011653
H   49.216393   25.027727   73.364235
H   84.178055   92.845184   78.825302
H   97.083183   35.346207   83.433693
H   27.730886    6.306027   96.960953
H   95.417450   62.819386   21.887554
H    9.630142   60.709629   65.354813
H   47.722366   58.839046   64.389053
H   42.852039   34.465172   80.044136
H   48.505486   82.102905   25.949064
H    1.790393   15.049827   55.423859
H   36.920582   59.380112   31.217291
H   88.463577   58.900631   22.156479
H   75.074234   10.128250   30.991222
H    8.769980   82.723595   99.956497
H   31.931967   99.473137   49.899727
H   13.300174   11.320894   82.668312
H    9.092491   38.516087   99.193680
