100
TIME:    6.200, STEP:  6200
H   98.042068   53.450554   93.469742
H   29.245628   40.833294   69.036537
H   86.336853   19.956669   50.565983
H   82.517258   77.209991    0.318881
H   39.638214   69.714767   97.598663
H   31.875072   94.491173   92.752953
H   28.028667   79.991676   75.301155
H   32.578522   24.980923   38.930676
H    1.220054   90.188583    9.818463
H    5.416002    5.406573   50.472813
H   23.546127   15.712742   42.534012
H   19.203468   34.464420   51.606041
H   48.431992   86.663811    8.958427
H   48.093636   85.965736   29.062817
H   55.911201   16.218262   52.743771
H   52.235596   69.454323   18.386795
H   25.540108   92.053047   37.798805
H   33.651142   93.147217   84.601112
H   41.833187   38.451485   90.002625
H   25.478798   74.147011   38.457420
H   96.359940   38.988010   88.964622
H   56.780380   52.314575   91.291031
H    2.963556   44.198021   54.961441
H   42.988712   10.998262   46.607845
H    7.837256   94.468185   82.328285
H   18.283224   43.372482    7.397582
H   27.445606   84.750687   22.984159
H    9.404191   45.834740   71.713730
H   45.984123   11.604691   64.094757
H   38.728016   37.389946   76.270950
H   60.066383   78.021141   18.854668
H   57.229008   81.211700   25.298973
H    7.076246   14.860918   56.341919
H   40.067055    5.529757   10.555494
H   26.655396   90.243080    2.262891
H   11.593201   71.039284   99.933357
H   74.459114   77.477661   97.001198
H    7.736214   45.491558   59.957111
H   83.368530   46.328484   43.485970
H   79.222321   31.759796   25.837156
H   11.525787   68.917976   88.415016
H   77.711700   65.916443   96.481133
H   64.644501    0.679751   49.306076
H   83.452591   16.709616   86.938927
H   18.852032   87.271835   86.660751
H   98.094872   81.172348    8.349386
H   90.172165   62.015152   84.979088
H   56.570530   59.227966   52.198780
H   46.260742   18.966248   97.152603
H   55.911877   25.099669   50.028404
H   43.075871   71.073456   18.784691
H    6.441278   88.425842   67.044716
H   37.479176   57.958435   42.782757
H   33.113899    6.041730    5.405879
H   47.141991    1.942768   53.083317
H    1.317852    6.011925   81.564163
H   89.305199   10.648351   45.659096
H   64.390778   91.373756   53.858017
H   79.257294    0.733763   35.508324
H   49.881927    4.339856   87.267845
H   50.801624   90.243301   30.995167
H   78.867805   70.233353   14.822690
H   94.978172   84.205971    8.317841
H   68.783676   75.537140   58.812595
H   78.412323   65.661606   72.947929
H   20.470680   34.052605   12.776124
H   90.130539   62.709850   66.398209
H   52.089394   72.121803   62.598454
H   65.911049    4.293861   71.380493
H   55.993942   59.985649   88.677704
H   25.154991   73.552994   87.775398
H   62.747692   45.759125   10.556376
H    2.739139   11.629883    2.777695
H   93.724541   57.020092   34.769981
H   61.096279   37.480221   71.400040
H   72.231972    4.934132   78.747559
H   29.875488   89.174706    0.699424
H   23.267605   45.317909   56.843895
H   58.823841   35.307369   86.855186
H   95.471664   71.276222   86.785698
H   32.196770   93.423508   50.548252
H    6.540103   84.678650   68.311028
H   10.037950   10.804461   20.399780
H   76.699059   42.706810   97.143486
H   50.440910   61.072922   46.731873
H    8.595463   36.790184   72.329987
H   81.238701   52.562279   19.183416
H   55.742058    8.943052   31.293442
H   84.350204   48.965843   77.482796
H   18.175138   54.192684   45.851440
H   77.752190    8.214432   64.394455
H   37.036114   61.778519   51.659019
H   82.885498   13.549298   98.460098
H   46.473072   89.320015   44.855438
H   49.398109   94.370834   58.555332
H    6.016196   50.900055   47.210953
H   70.475548   23.485308   80.621521
H   26.309893   93.235031   54.415047
H   13.359237   63.576061   25.722046
H   24.317301   19.533230    0.474177
