100
TIME:    3.402, STEP:  3402
H   87.259186   10.040583   96.031387
H    6.636924   89.195724   92.597183
H   38.232048   18.657436   83.406471
H   82.047623   92.486992   53.688931
H   64.699646   45.442806   73.462631
H   75.268074   97.522453   15.657204
H   74.670494   91.056541   56.493767
H   52.495804   82.918045   95.833092
H   70.000282   59.204971   85.943306
H   81.873558   65.231041   40.909317
H   83.809280    3.129522   12.051970
H   25.995514   94.215530   50.770714
H   26.861530   55.881683   86.997826
H   86.634087   94.589943   16.133312
H   21.882118   66.146957   87.241371
H   64.737427   14.177847   50.645851
H   50.538582    6.987415   83.085831
H   73.840782   29.261543   81.602234
H   98.255638   21.070810   42.592182
H    0.865402   33.570858   47.956596
H   62.397217   17.537178   64.903900
H   88.533401   48.600189   29.566528
H   40.322426   66.953972   35.016068
H    2.958841   77.483337   54.412289
H    7.909602   16.363289   61.664345
H   31.059126   26.241735   70.300819
H   68.721481    1.058922   67.474159
H   45.490711   15.233551   79.224480
H   85.143723   57.747940   96.358620
H   31.440258    6.640254   53.837646
H   49.946316   27.119730   40.223534
H   80.561623   58.515366   84.323891
H    9.989300   19.575699    4.275982
H   21.844025   61.949745   28.429508
H   96.205856    1.754889   31.886299
H   68.346703   51.730648    8.943837
H    6.095441   79.946762   76.529655
H   23.381363   96.689491   62.509846
H    1.471592    7.294367   14.633238
H   42.762936   93.699142    5.696119
H    2.749681   72.913010   22.495344
H   25.868797   64.543945   62.629990
H   40.544254   83.900726   47.203243
H   62.118286   69.788483   13.363822
H   61.556316   97.667114   47.229427
H   34.197155   27.804737   96.981972
H   68.312790    9.849729   58.119835
H   56.421101   30.410044   79.074425
H   64.470688   50.695190    8.766074
H   97.228539   82.520729   45.723461
H   43.285069   41.202667   89.286972
H   70.463608   48.059387   50.727848
H   79.445320   41.734680    5.285965
H   97.913353   51.701897   81.937775
H   69.920914   56.727135   29.282579
H   97.822891    8.956015   76.814697
H   11.924615   91.383232   79.545906
H   72.736320   55.610809   25.928375
H   58.584244   82.511215   50.310368
H   34.521767   89.276703   66.849617
H   74.301338   20.364029   49.148441
H   78.170982   96.276749   41.425362
H    5.021630   75.136650    0.185114
H   76.649406   60.300537   34.776615
H   67.355583   89.131844   12.382455
H   92.355049   73.149361   47.336594
H   14.619602   65.976013   31.311632
H   45.366432   12.100986   28.837873
H   26.457100    5.340294   46.865780
H   99.311340   19.252966   94.569489
H   14.003061   63.927742   21.339218
H   93.456955   38.619476    5.699812
H   85.174423   50.028332   74.521965
H   55.323055   34.093849    1.019437
H   26.196085   33.488323   59.292759
H    6.080856   25.608564   67.016876
H   75.835060   31.683586   51.215519
H   91.812469   28.271708    2.318446
H   24.651411   43.525982   55.640091
H   32.684944   23.673096   27.835770
H   77.451584   64.476913   83.318619
H   96.579666   66.445206    2.303929
H   33.043392   64.042664   53.923557
H   84.202042    3.275194   52.696014
H   86.679764   36.087658   17.966545
H   72.996521   34.014961   78.028351
H   94.366600   55.999809   85.763733
H   10.718103   32.921875   60.362968
H   26.285191    4.754709    0.366953
H   65.557007   69.309647   45.830078
H   63.246460   57.128590    5.305825
H   30.006578   51.354729   98.349083
H    3.529410   29.593870   82.086327
H   76.044441   19.588688   56.197014
H   97.770515   44.999660   94.262016
H   74.912827   61.389900   91.731041
H   92.567902   62.914394   41.537682
H   19.354361   45.203674    1.601473
H   46.649925   51.514980   60.084686
H   50.521320   91.333321   70.014999
