100
TIME:    0.677, STEP:   677
H   71.539711   59.936958   98.526199
H   82.438225   41.451214   20.705107
H   91.396240   22.609932   15.390778
H   81.590240    4.756929    3.053874
H   89.107224   27.022057   47.348579
H   17.518269    0.476819   45.791409
H   17.489334    7.051081   43.395054
H   66.675430   47.170506   46.034630
H   36.986046   21.202728   57.473442
H   56.339226   26.105640   34.200912
H   37.282135   93.483246   74.536812
H   30.001148   57.625175   44.739082
H    0.199094   20.748138   57.839912
H   21.560612    2.989921    8.759335
H   88.736320    9.551944   18.229185
H   74.303299   52.522503   76.843246
H   69.636757   26.768082   34.993950
H   15.611264   61.778152   76.075974
H   55.806267    6.752801   99.030960
H   74.323616   91.337799   62.374336
H   24.102402   88.819672   38.868629
H   27.263111   44.993500   61.611301
H   76.705101   89.116219   12.979813
H   56.140900   44.801304   56.795860
H    5.371065   32.483318   41.557747
H   43.554760    7.437679   25.718325
H    3.699902   14.334487   13.400450
H   75.417137   88.039261   89.151718
H   25.891937   10.514920   25.169743
H   26.952097   74.084061   37.207729
H   42.733006   82.752769   55.839684
H    8.503376   33.807083   36.590782
H   18.044437   18.949648   58.786461
H    6.706773   11.679626   43.229805
H   63.943932    7.744161   65.951706
H   31.418003   37.667492   18.314871
H   44.731930   79.742531   61.810253
H   36.008705   46.563175   70.214439
H   20.284454   66.056038   77.239960
H   99.427971   48.805149   91.299004
H   88.976410   79.410027   58.292507
H   70.776268   42.242508   34.606632
H   17.072233   67.559708   50.372971
H   36.127838   24.117060   46.925911
H   97.931068    5.181157   14.040121
H   69.305061   75.930962   85.973152
H   43.228565   62.262783   33.408150
H   56.275570    2.353727   10.466811
H   84.819511   76.379623   17.467798
H   40.088642   41.053768   36.314316
H   43.492970    4.283243   60.555058
H   38.033180    0.918002   29.618118
H   22.922724   25.934204   63.552437
H   61.011997   96.156883   61.690571
H   86.863708   17.853899    6.150875
H   94.413315   11.820450   69.580124
H   39.170181   70.012383   20.375908
H   75.647888   12.952827   96.116653
H   43.669960   67.373428   59.510815
H   14.344350   79.824539   44.354088
H    2.405948   47.086624   61.610283
H   74.883087   21.643936   64.724747
H   20.153088   60.987297   87.113136
H   89.527657   45.477196    8.758467
H   59.195190    6.772769   58.609688
H   59.756142    8.617390   86.215385
H   33.252129   71.766541   99.747116
H   33.600883   56.255661   98.567116
H   90.643303    1.141427   17.771519
H   44.100327   82.194969    0.307135
H    0.533556   49.340160   54.027866
H   18.145594   29.057335    6.187913
H   62.850189   84.819313   44.389843
H   15.289712    6.537195   62.972481
H   94.813278   29.606989   52.719288
H   41.664280   50.962708   50.375492
H   28.421837   67.867546    3.013437
H   63.787018    6.452950   51.829372
H   94.002052   51.519382   25.237247
H   66.324173   72.084648   62.597015
H   24.130222   36.285534   20.451279
H   92.118828   48.648880   30.167953
H   60.630909   18.556997   94.380859
H   96.740509   70.093361    1.593636
H   19.365191    6.536292   82.124962
H   35.710972   33.921391   88.796089
H   12.370031   54.129509   55.825085
H   66.853531   51.091667   88.702934
H   69.732368   56.477699   22.661533
H    6.480289   81.428192   48.414730
H   51.728184    9.988256   47.758739
H   28.378099   46.422676   46.422455
H   28.721027   47.915276   71.289330
H   12.661888   54.298714   72.464302
H   44.887531   89.087799   31.642296
H   49.839020   68.997124   32.481163
H    8.865557    6.532080   98.253891
H    9.350869   22.001923   45.203850
H   76.461388   39.768574   88.342690
H   81.285446   61.315800   32.481552
