100
TIME:    2.692, STEP:  2692
H   35.272858   75.151237   96.681412
H   26.387428   50.701576   47.810505
H   26.027838   67.577316   91.737617
H   81.928452   21.740099   92.605164
H   71.059052   88.533188   92.714188
H   86.275154   98.291649   45.343891
H   11.883234   43.114883    0.970765
H    8.300407   21.494486   61.024448
H   87.453438   27.468674   30.634823
H    1.276606   55.036491   13.104526
H   49.851746   74.561050   80.442047
H   53.096115   58.626694    1.310051
H   72.023247   98.837463   57.565369
H   21.788963   96.778358   62.103672
H   13.244919   29.566664   21.369856
H   93.284332   76.276886    9.581747
H    7.632500   60.024231   18.451731
H   58.671646   63.788673    6.217178
H   87.194389   91.285202    5.188642
H   19.992371   48.646008   99.616554
H    4.529582   88.220062   84.177124
H   20.465012   47.657654   90.029633
H   49.801949   72.728355   55.329330
H   68.925537   68.968018    7.141711
H   33.301750   72.672485   56.423660
H   34.315449   47.395351   36.850517
H   29.944290   30.573294   53.386219
H    5.399252   82.093178   55.756695
H   69.705643   93.331551   29.919260
H    4.217191   24.213303   97.395317
H   22.001654   63.451374   96.396477
H   35.731606   78.133751   50.052132
H   59.979511   71.522835   40.313576
H   91.844139   27.016922   58.341141
H   13.855329   55.425598   88.652824
H    6.613019   95.955009   11.386018
H   37.996918    5.948313   20.584227
H   52.724548    9.682796   12.409117
H   31.442596   22.762239   83.437637
H    9.637480   60.168060   49.835697
H   51.271587   48.551365    5.768116
H   89.679527   32.676590   29.273127
H   34.428608   79.643066   95.919884
H    7.457154   57.890251   43.943298
H   23.144892   25.678936   86.472389
H   43.357082   14.262562   94.100197
H   62.764713   71.237701   51.299995
H   56.383183   23.099977   35.143608
H   43.718536    9.498699   37.089012
H   82.342979   71.719490   95.383331
H   43.339237    9.748106   81.800858
H   35.958149   13.941330   97.336143
H   64.722267   37.617859   46.522842
H   14.354244   63.288582   50.606598
H   26.450043   94.499969   23.248121
H   96.934525    9.702787    0.984772
H   66.911507   11.870553   12.019123
H   25.604584   22.661503   44.216629
H    2.590048   52.512585    4.816515
H   81.374283   34.704243   87.043709
H   29.514505   53.380230    4.507062
H    3.369900    2.885908   73.551208
H   56.830379   23.579218   48.876633
H   27.893789   56.438309   54.055256
H   39.172253   45.838779   46.262184
H   35.971291    8.445564    5.357227
H   71.584236   41.431736   97.031326
H   94.410774   71.495422   94.895767
H   91.070549   56.356377   91.394539
H   84.924133   83.543037   96.064545
H   36.550117   12.235761   29.857246
H   51.998856   62.182861   53.718140
H   31.468748   85.149162   92.722649
H   70.949272   79.024979   43.214989
H   91.964012   32.475368    5.469434
H   89.297752   80.105217   14.792503
H   11.370752   93.222061   38.659214
H   58.455379   74.698235   63.110760
H   90.604370   45.611477   47.715210
H   67.504585   62.343548   89.003067
H   63.562557   57.131634   40.882862
H   43.308060   61.808365   61.674171
H   88.123184   52.190552   86.299652
H   35.355885   42.519501   17.545319
H   21.251385   80.498566   86.793297
H   89.333801    7.935230   28.723995
H   46.947319    7.622604   51.908295
H   99.291046   89.766510   67.748909
H   11.549004   44.285545    6.175822
H   28.329250   98.517410   20.450809
H   34.190369   18.792465   90.311844
H   77.471817   97.961235   84.817741
H   58.007816    8.295694   27.176010
H    7.419228   76.523247    8.326795
H   10.046947    8.595985   77.946404
H   16.269791   89.427620   28.403839
H   48.923843   22.168697   82.370049
H   16.748846   39.158447   12.962009
H   80.472862   48.454449   19.554420
H    6.423599    9.556990   38.407867
