100
TIME:    7.845, STEP:  7845
H   86.797112    2.597383   91.963699
H   83.817184   29.972965   72.758560
H   14.619303   38.304199   31.251232
H   82.793365    9.435989   10.150927
H   24.901075    1.568670   52.994705
H    6.361388   92.709023   55.663338
H   41.813442   91.069199    3.942386
H    3.284767   67.293144   87.891823
H   60.782799   32.028717    6.271687
H   60.484993   29.027575   14.882526
H   70.532242   81.903290   84.079178
H   56.421272   16.919643   34.512871
H   43.500175   87.138489   45.492123
H   66.643715   80.895393   54.248966
H   75.891365   69.278763   73.634552
H   86.092331   25.576721   81.837189
H   93.258705    0.857603   87.549652
H   68.828064   13.101173   27.579834
H   67.450150    7.459169   76.666214
H   81.158157   39.215733   50.456673
H   98.743309   75.223206   44.315998
H   14.488130   54.498337   51.204056
H   81.000145   30.819899    7.894940
H   90.144302   30.677217   24.435562
H   49.001656   64.013641   94.477028
H   10.617535   94.832870   52.633591
H   85.596008   16.369051   55.627628
H   70.602623   22.617773   26.085794
H   81.752632   60.851704   86.335197
H    1.805982   96.675369    7.043911
H   24.805014   25.532288   88.707649
H   61.095364   35.762119   73.013130
H   22.947844   94.505272    4.536511
H    9.571355   54.775246   41.253250
H   85.715202   65.693443    2.347038
H   54.590000   99.882462   94.762611
H   32.236897   17.234423   26.620512
H   39.743912   15.383324   76.040642
H   13.931014   10.488440   84.073769
H   24.282471   77.761093   55.263618
H   99.101929   25.364012   27.169279
H   39.080147   72.367325   80.460808
H   78.801300   10.547678   68.124947
H   78.413391   44.320396   47.777538
H   76.159569   22.369457   27.428169
H   76.859673   12.546046   15.032450
H    3.025568   51.476204    0.767922
H   56.666439   76.170944   53.981686
H   94.349068   82.727119   31.533188
H   90.447510   50.139355   35.009750
H   42.962917   12.259291   36.124496
H   86.395264   35.780849   59.061462
H   71.600792   67.496704   47.245918
H   95.021942   79.206940   77.994827
H   16.164295   46.103500   67.074203
H    3.366697    4.281545   25.564484
H   93.591415   63.182274    2.112149
H   41.900558   36.024254   11.485318
H    8.992519   70.248360    9.225208
H   41.329292   30.780972   40.480125
H   54.569408   13.743185    2.738872
H   20.483559   54.921921   40.393097
H    6.657146   71.954254   95.515259
H   81.742302   84.498093   14.146016
H   43.704781   34.276974   26.139929
H   19.417255   52.275108   10.041789
H   58.149567   19.584938   45.819256
H   38.458046   66.201286   41.238968
H   47.896797   86.094673   68.209259
H   89.352623   42.677753   85.204483
H   72.918159   61.628494   68.046242
H   27.251026   91.114647   31.081858
H   95.481995   30.266890   60.606586
H   57.506474   52.908749   37.029755
H   40.372147   39.866543   96.114975
H   11.115905   10.363304   68.059242
H   79.276085   46.796402   29.873098
H    0.552636   37.757061   47.690487
H   37.709068   30.475483    5.206512
H   14.799281   81.664879   45.067390
H   64.393913   10.442483   48.867844
H   29.979321   95.346588   30.691845
H   14.088025   38.314243   77.061615
H   89.872826   83.472656   46.897175
H   70.343842   58.167728   87.268318
H   70.741074   97.213242   86.563721
H   91.104591   32.957069   97.623131
H   82.198204   77.309937   14.237511
H   18.490196   57.375038   64.028816
H   72.736053   86.511124    4.657893
H   45.072437   97.039635   99.133835
H   58.749454   85.498596   83.004860
H   88.333206   62.909840   25.670473
H    5.455277   89.119957   55.775066
H   20.956570   47.022858   96.356995
H   41.886444   85.941895   62.244469
H   39.902824   17.887848   86.015358
H   23.134653   74.629097   21.393049
H   34.995201   70.678810   87.936119
H   26.494623   77.317032   42.006817
