100
TIME:    6.585, STEP:  6585
H   72.005692   18.144583   93.117264
H   18.614010   61.697056   93.310524
H   92.957565   47.654930   46.045452
H   82.581879   61.348480   79.217163
H   36.189804    0.574213   87.159439
H   25.903507   94.074074   30.880531
H    7.851063    5.987516    5.408700
H    2.318283   58.287159    3.580325
H   91.756004   53.172516   85.584709
H   94.899666   10.935165   65.547127
H   87.734375   31.204138    5.449333
H    4.508072   53.762592   24.201294
H   23.864273   63.382557   70.702812
H   29.030678   84.779060   58.362553
H   60.587410   81.828178   34.229862
H   36.755936   35.780922   86.428223
H   94.580482   17.518009   72.846870
H   41.884441   74.413010   71.253944
H   47.828251   54.603790   10.286357
H   15.107132   65.969521   64.670036
H   73.513489    0.659017   78.513649
H   93.690704   52.825668   58.504700
H   97.822960   41.066841   43.946503
H    7.216148   15.603975   18.013784
H   94.067574   63.937706   85.171608
H   16.528177   31.990379   71.192589
H   94.246819   68.748184   30.624121
H   76.918106   63.805244   84.438187
H   54.355476   46.534496   45.895142
H   53.490971   27.861290    6.877527
H   75.217827   12.545632   88.394768
H   81.538239   70.572739   89.657646
H   34.195385   86.692726   91.025757
H   56.333916   70.246780   94.336441
H   17.073868   61.093147   25.687639
H   45.060192    1.193817   98.723183
H   11.386533   63.378540   27.337439
H   91.822868   38.444935   87.126854
H   67.119293   37.939507    6.177169
H   42.959911   95.717300   56.129406
H   85.213837   82.130028   97.485451
H   45.266098   67.426224   16.136330
H   67.957794    2.989347   77.115044
H   58.867863   23.171713   24.582369
H   85.455574   72.080032   19.606569
H   93.124931   88.515640    9.913507
H   93.179977   82.952347   88.674232
H   56.591091   63.193344   76.020416
H   57.513603   87.080421   81.796310
H   63.992435   30.961084   23.108381
H   43.049435   33.904648   22.842594
H   25.155533   52.701126   41.772041
H   45.465740   60.190796   20.421724
H   24.199142   99.759613   22.393852
H   16.487408   35.682724   56.358425
H    1.797369    5.606942   68.457855
H   13.713059   99.538780   82.275688
H   35.722565   55.015648   43.941635
H    9.622573   17.002872    5.952817
H   24.477074   33.933277   76.317528
H   75.087364   72.337418    0.978360
H   65.203407   66.649826   97.402390
H   21.115690   57.934608   81.917236
H   95.219528   77.634384   48.358685
H   93.692245   34.910992    8.801177
H   96.820648   14.913090   35.540436
H   59.241714   76.021484   84.985550
H   25.494926   94.139931   81.003677
H   85.097603   76.630234   47.233707
H   63.792519   79.349052   87.867004
H   12.928595   47.358002   83.157936
H   31.004061   32.981796   38.744690
H   77.636688   92.586121   92.907532
H   85.247444   32.655048   11.895449
H   79.659660   38.029499    0.585241
H   81.331779   29.609108   52.841690
H   64.841400   55.853062    7.527568
H   41.355602   20.142859   78.105186
H   77.286995   34.176502   91.149544
H   76.590591   50.303780   53.617516
H   39.730988   97.406509   73.559189
H   35.430222   87.175507   36.103519
H   34.391243   17.242468   57.066307
H    3.187600   75.651756   61.978100
H   31.694929   36.989861    9.410454
H   99.733994   50.933365   99.065445
H    6.952044   24.569649   37.541649
H   61.933922   78.136047   27.301628
H   92.339706   27.529612   74.333992
H   84.136398   38.351734   59.612770
H   93.507957   29.003292   72.524948
H   65.522217   90.734589   58.993500
H    7.564716   25.101765   28.232737
H   83.681618   12.677192   70.815445
H   42.742149   59.886383   67.402527
H   37.815613   35.696503   27.325317
H   39.915703   45.579239   58.480026
H   25.566751   12.285398   46.686966
H   95.019005   65.237831   93.473854
H   48.230000    9.653564   63.387531
