100
TIME:    7.589, STEP:  7589
H    4.109468   26.073193   92.198074
H   90.887497   16.099918   56.617039
H   10.218912   19.886871   34.256847
H   82.750397   19.983841   24.183357
H   27.195021   81.049156   59.936111
H   10.331603   92.986366   30.309887
H   55.229458   73.784042   83.922836
H   23.405861   45.146366   11.396443
H   67.075768   56.641998   22.385971
H   67.477180   25.351793    4.858189
H   94.344742   71.602509    8.738970
H   66.192322    4.088066   52.735527
H   59.824394    2.634325   70.932106
H   79.319496   81.684456   34.766544
H   72.781990   92.145950   85.947052
H   96.385300   47.967346    3.087290
H   13.844957   83.924088   64.244965
H   63.355175   25.558090   36.453369
H   63.462132   96.719696   63.178051
H   88.056595   44.651279   33.026985
H   13.934692    0.707635   51.263264
H   89.945160   54.158493   73.004837
H   84.418114   32.901375   15.219647
H   13.930048   27.614717   43.448845
H   58.157906   84.314423   92.586403
H   11.824566    2.379421   76.724358
H    7.670584   27.010653   50.547550
H   92.204185   10.668555   17.623880
H   76.186226   37.625141   98.436760
H   91.989685    3.011534   86.692619
H   14.729756    2.576469    8.961479
H   44.931301   42.834385   96.712349
H    4.915318   13.235147   81.474007
H   98.754509   78.236183   52.038406
H   92.086296   85.076256   86.772583
H   32.336094   79.831680   95.567299
H    7.683197   26.610399    6.448869
H   50.323990   20.068806   57.974884
H   24.737560   16.065588    8.882076
H   48.394112    1.726045   35.121040
H   16.597204   16.580809   21.138029
H   60.654366   71.363419   67.390495
H   76.598175    9.012033   49.634274
H   94.761047   40.023521   22.747879
H   98.366600   32.469067    5.520943
H   80.164360    7.664194   13.992411
H    1.024348   37.554329   98.310402
H   56.650814   73.534225   38.141842
H   86.864693    3.929904   41.746033
H   85.072510   46.242870   52.910141
H   42.980495   36.974915   33.425278
H   73.953857   59.536709   75.866150
H   66.292198   66.012329   62.113106
H    0.951309   83.382721   66.697952
H   36.547867   23.668316   64.898422
H    3.047849    4.550832   34.279327
H   77.360947   70.568993   77.764458
H   60.963058   60.200035   18.079710
H   88.801476   59.431126   28.878529
H   58.221870   11.103238   47.761375
H   38.420971   25.648365   22.698181
H   29.569496   57.304733   51.977081
H   89.277794   89.423004   13.069946
H   64.164177   83.103561   21.097057
H   33.542671   54.724239    2.299110
H   35.143036   65.001671   94.904755
H   78.688629   10.734642   33.459881
H   56.141640   51.560661   29.000687
H   35.137032    4.489182   84.263947
H   84.153404   29.820330   85.747452
H   81.047066   79.046463   71.116554
H   48.331326   99.614647   12.317306
H   12.173918   42.929134   67.170227
H   63.141239   69.110535   52.240692
H   28.040430   39.489590   76.704819
H    5.063540   93.956322   85.285805
H   56.026081   68.954170   25.333059
H   88.525345   54.495342   33.551815
H   25.433676   31.227436    2.349579
H   27.353039   95.610191   67.122078
H   59.382195    7.794045   33.567062
H   10.769492   93.686432   52.107922
H   97.895485   34.032993   52.681801
H   72.259544   61.566402   70.278557
H   82.808685   74.182640   12.084485
H   76.631699   87.810898   68.786377
H   74.006935   51.570351   85.416100
H   78.081017   97.794312   16.891808
H   13.176721   71.628944   66.122566
H   95.368866   97.042374   95.506180
H   34.595875   83.215416   93.727585
H   39.808048   66.244690   78.125954
H   71.923050   55.228199    5.873599
H   80.713356   73.588707   38.513348
H   25.383327   69.953995   90.474182
H   20.741913   96.051270   75.467125
H   60.223137    3.196993    0.738039
H   23.628794   61.961445   26.532698
H   47.190514   69.573341    9.378361
H   10.594067   83.887344   66.668716
