100
TIME:    8.037, STEP:  8037
H   73.812737   84.990044   91.787918
H   78.514450   40.377750   84.864029
H   17.919596   52.117676   28.997570
H   82.825592    1.525101   99.626534
H   23.180616   16.958241   47.788651
H    3.383727   92.501015   74.677650
H   31.751411    4.033488   18.957035
H   88.193939   83.904472   70.263893
H   56.063072   13.568072   94.186279
H   55.240852   31.784410   22.400837
H   52.672867   89.628876   65.584061
H   49.092659   26.543667   20.846478
H   31.257011   75.516418   26.412317
H   57.136879   80.303596   68.860298
H   78.223396   52.128372   64.400177
H   78.372604    8.783594   65.899689
H   77.819252   13.556597    5.028172
H   72.932556    3.758683   20.924316
H   70.441360   15.514333   86.782425
H   75.984329   35.139072   63.528938
H   87.349754   56.109318   39.105549
H   32.895359   54.753220   34.853470
H   78.436668   29.259108    2.401410
H   72.305435   32.974091   10.175891
H   42.134468   48.786591   95.894997
H    9.712261   89.172714   34.564743
H   69.040344    8.387500   59.437687
H   54.402321   31.579687   32.432281
H   85.927437   78.271622   77.259026
H    9.167892   91.923416   22.306862
H   32.361446   42.748871   73.517220
H   73.218407   30.457920   55.238716
H   36.472256   80.457420   21.833387
H   17.684101   37.179543   33.164383
H   80.936882   51.156334   14.028875
H   71.280426   14.921296   94.159096
H   50.651447   10.202440   41.749416
H   31.808834   11.869530   89.590446
H    5.826351    6.305578   65.467323
H    6.198242   59.787117   70.369934
H   85.979858   31.951414   31.692717
H   22.899483   73.120255   90.263542
H   80.453644   11.699411   81.994087
H   66.152649   47.543053   66.549713
H   59.504692   14.794691   43.858063
H   74.381157   16.207424   15.812479
H    4.526484   61.917610    2.611886
H   56.678158   78.148483   65.861565
H   99.962349   66.824776   23.874252
H   94.478760   53.061718   21.585026
H   42.949734   93.722679   38.148911
H   95.726318   17.964533   46.457947
H   75.582237   68.609985   36.095528
H   90.574677   76.075104   86.467484
H    0.876539   62.930161   68.706039
H    3.605833    4.079579   19.028351
H    5.763722   57.642235   20.373161
H   27.603910   17.891848    6.539639
H   24.135342   78.360664   94.485489
H   28.659859   45.539272   35.019188
H   66.680740    4.814596   87.768379
H   13.669106   53.134811   31.705135
H   19.692078   58.852692   82.349243
H   94.925896   85.543991    8.933003
H   51.326363   18.942148   44.020050
H    7.623066   42.730186   21.394520
H   42.745270   26.222878   55.088787
H   25.195351   77.181755   50.417679
H   57.466621   72.298775   56.167290
H   93.252037   52.320820   84.797256
H   66.821480   48.565010   65.743507
H   11.440341   84.739647   45.154659
H   82.963440   20.769575   55.683247
H   53.280399   40.757870   25.621962
H   49.621170   40.149258   10.672350
H   15.655089   22.668724   55.140327
H   96.713585   30.177750   33.278404
H    9.572196   25.203350   58.294491
H   46.915611   29.911518    7.349213
H    5.383683   71.205894   28.526375
H   68.152702   12.428811   60.343430
H   44.386162   96.591705   14.629101
H   26.232313   41.525181   95.345795
H    3.082612   99.902344   29.361530
H   60.995209   46.157475   68.656013
H   66.323105    4.265445   99.896729
H    3.927861   18.997108    6.778502
H   85.286095   61.946457   12.246788
H   22.475304   46.684608   62.458504
H   55.760731   78.612686   11.521141
H   52.929859    7.406988    3.188647
H   72.955513   99.939026   86.664040
H    0.640814   68.669884   40.518127
H   24.011160    0.768389   68.721352
H   17.636501   29.824127    0.769037
H   57.744843   78.359863   52.327477
H   24.662943   28.905670   74.973366
H   22.764048   84.130074   17.538313
H   25.848717   71.507912   71.855064
H   38.419918   72.389297   23.510235
