100
TIME:    0.037, STEP:    37
H   14.820434   18.628113   99.112137
H    0.240970    6.750821   80.334473
H   80.400146   76.565804   22.905426
H   81.482819   31.126558   38.135239
H   94.839645   75.723236   64.702095
H   27.442585    1.173382   82.409904
H   51.030430   63.837482   93.345932
H   16.978170   91.803284    4.796196
H   52.718468   82.735931   97.757439
H   73.829460   16.918629    9.137438
H   96.813385   67.731293   36.185593
H   54.429859   25.545097   90.295723
H   40.908646   59.468842   21.451649
H   53.250065    4.963187   60.056908
H   80.953117   66.716080   48.994694
H    0.033933    8.502361   29.969059
H   21.091139   84.443977   76.723488
H    1.935503   92.901199   98.263474
H   45.840446   79.906021   65.310257
H   91.647835    4.756636   18.712229
H   62.080917   52.534576   56.236794
H   65.895607   44.148773   16.104883
H   85.250023   94.321297   31.292599
H   15.603870   37.125523    4.326262
H   28.259260   83.238304   36.831436
H   46.483585   26.512714   85.702049
H   58.889080   40.939388    0.700605
H   29.418472   58.166210   67.999374
H   11.975568   52.448757   55.423096
H    2.412847   89.923904   86.330284
H   17.557222   25.360193    6.484140
H   68.093567   51.487747   95.838829
H   72.964905   65.775139    1.130205
H   79.665459   70.331879   70.192696
H   79.852135   56.123276   26.981735
H   75.772118   87.392509   20.517019
H   83.349358    3.178495   11.379541
H   62.458900   58.277042   25.052629
H   49.057873   79.718147   38.580666
H   59.707615    8.719028   40.945206
H   32.712994   57.448589   43.209499
H   28.295822   13.517029    4.538739
H   11.560521   63.721813    4.146174
H   76.996979   13.391961   84.349014
H   53.445328   30.432098   59.273445
H   77.478889   63.899670   83.463387
H   36.470753   27.736416   27.939398
H   56.241390   95.762726   70.867294
H   66.108574   29.384800   42.998634
H   26.665792   31.312557   81.076920
H   43.535519   66.072914   53.817905
H    6.931630   60.306442   71.633835
H    9.646940   22.223267    0.720518
H   75.827438    6.598664   33.448383
H   37.814240   61.749332    0.720151
H   93.612534   12.493565   91.367233
H   98.598244   88.479179   59.506462
H   23.305021   73.392281   12.601971
H   93.195641   40.332413    8.642554
H   56.582100   30.631727   62.546326
H   62.034775   76.849472   11.511537
H   97.597931   27.600967   93.679825
H   76.743309    4.630075   31.019745
H   45.580299   41.995750   26.136396
H   33.789917   57.889935   99.006584
H   99.072548   40.433796   48.373592
H   84.599785   49.640804   68.848679
H   77.809868   19.653275   67.971413
H   58.747971   47.127739   57.913120
H   31.136295   50.005348    1.652960
H   20.858049   92.886726   61.703648
H   70.915428   50.297569   59.331585
H    4.578910   16.476925   60.800976
H   29.376564   47.038853    1.009599
H   63.953907   28.696344    4.202511
H   26.532446    9.943514   93.440353
H   70.315094   23.337261   91.686340
H   33.718658   48.300663   16.483368
H   63.328117   53.391224   18.101017
H   97.710892    6.938682   17.733454
H   11.606237   29.663580   82.200150
H   44.100452   44.469193   83.686584
H   20.137032    7.874917   33.423828
H   52.715820   15.327732   60.050667
H   50.529671   46.571518   44.165474
H   50.448185   10.407119   44.354633
H   69.625862    0.662716   25.307507
H   56.550797    2.331835   95.353325
H   56.451118   92.112465   27.898350
H   63.063423    7.764772   25.534559
H   25.536776   75.428543   34.243114
H   81.024254   98.289528   34.230072
H   87.658257   28.740057   21.777105
H   50.804565   15.476511   29.313778
H   55.951984   46.415897   16.937706
H   96.977600   94.270561   65.537804
H   59.665398   69.803749   35.060966
H    7.001275   16.552704   55.443108
H    6.949389   37.009785   41.952236
H   41.539349   77.752144   94.122177
