100
TIME:    1.444, STEP:  1444
H   19.670534   89.599228   97.823990
H   61.102760   83.036888   69.087334
H    4.575810   77.791389    6.384809
H   81.718979   73.157066   61.014225
H   82.237274   88.500496   26.551476
H    5.624449   99.643700   21.749605
H   77.289558   58.844639    3.375485
H    6.390747   13.526857   75.611229
H   18.131721   47.458725    9.191865
H   35.378273   37.117058   64.237877
H   65.937668   24.344746    0.656464
H    0.724899   96.071144   90.143929
H   51.408768   74.343315   81.606834
H   83.583397    0.625190   67.130180
H   98.064003   41.042217   81.361130
H   43.464600   85.433525   13.176320
H    7.972012   77.491013    4.828565
H   32.001968   24.479126   49.485641
H   67.751518   38.931519   39.437519
H   53.612732   75.148300   14.646830
H   78.587631   12.462143   18.052010
H    0.807868   46.005852   96.300575
H   66.464546   82.878258   91.034897
H   84.878258   54.000248   99.829468
H   77.938469   71.651680   47.216385
H   40.037861   84.582016   53.825920
H   37.560951   82.452347   28.620840
H   10.701653   23.840740   14.502975
H   42.569412   80.103088   88.914207
H   56.362469   55.100998   98.182915
H   72.904610   51.535461   95.146851
H   56.932194   12.617679   65.585762
H   72.071976   62.832298   27.883879
H   39.114159   41.388680   10.918144
H   44.878944   49.764870   12.658768
H   98.104523   97.917068   15.675553
H   18.297741   51.654152   22.246710
H    4.309259   32.524837   24.340786
H   85.803696   49.682854    3.725736
H   27.185106   77.001228   51.645664
H   36.559540    5.730393   76.364548
H    1.842693   76.666176   70.641678
H   23.678854   72.159180    5.775475
H   87.150520   36.971550   21.921026
H   31.399563   74.916641   79.676956
H   59.457912   90.458870   89.034767
H   51.327381    3.635319   39.962105
H   56.316532   10.250734   57.924465
H    7.241703   12.857788   86.872482
H   56.175091   52.728001   82.669395
H   43.434452   30.235029   68.642166
H   75.308800   29.746298   79.266342
H   38.833618   30.381531   19.003952
H   43.251949   83.645851   95.537064
H   25.802933   85.093857   12.659479
H   95.373001   11.014372   43.469635
H   87.795197   47.881081   93.323769
H   18.534161   40.519981   76.361160
H    4.162963   99.780396    0.626258
H   63.728123   38.778866   22.538780
H   50.789562   11.420047    1.810948
H   47.660767   14.504499   30.018166
H   72.179367    8.683090   34.494240
H   42.196365   49.649490   87.935493
H   89.636894   45.514523   30.037767
H   12.637991   70.487556   31.565901
H   71.713669   98.286652   36.779369
H   80.618736    0.120353   35.234150
H   28.870834   46.029694   69.668465
H   59.636711   20.771711   98.692474
H   76.178535   97.150551   44.828922
H   54.901981    3.601528   62.345795
H   12.840050   46.879238   24.722126
H   98.409233   58.001595   17.387383
H   31.793312   30.698339   10.862686
H   59.798840    0.118924   98.767357
H   98.060448    1.390426   16.585009
H   99.822067   56.302147   94.185989
H   30.767458   49.272312   33.790184
H   28.709152   30.310286   96.519386
H   39.139950   44.220501   66.293114
H   49.668331   53.657974   66.031082
H    9.164210   31.357691   67.433746
H   49.504993   35.726543   31.536537
H   82.018341   58.562386    7.772844
H   18.056255   62.097546   42.059090
H   63.596214   98.362350   92.398499
H   79.200714   89.684601   80.732857
H   85.649117   13.772832   16.385536
H   38.669411   49.866501   75.836006
H   83.116951   51.402615   63.956371
H   85.128334    4.108984   61.034264
H   77.934013   70.896835   30.627146
H   86.795784    0.821370   24.180557
H   31.627392   20.384590   49.267693
H   13.190109   38.708488   92.864288
H   47.984207   50.548595   54.143433
H   12.167022   28.532471   32.932739
H   39.923088   43.074810   24.094158
H   28.918686   41.612972   58.608101
