100
TIME:    5.225, STEP:  5225
H   63.976967   42.862160   94.362381
H   56.173195   87.998611    7.558094
H   69.570114   49.811142   62.014080
H   82.353607   17.380352   53.763962
H   48.371201   91.564301   24.033348
H   46.997868   95.547462   96.195152
H   79.127312   14.153955   99.054810
H    9.211601   40.630497   28.451626
H   25.187462   83.930878   71.192818
H   32.053719   91.406624   12.293890
H   14.238251   76.481842   36.451191
H   56.419083   85.593025   21.007692
H   10.648911   45.624657    5.839579
H   96.370537   88.970955   54.865822
H   44.055260    3.309690   99.610413
H   91.437332   54.731461   99.320038
H    3.943647   27.564068   49.040710
H   12.800866   40.587116   18.400373
H   26.649570   97.546921   38.634914
H   51.744705   94.856239   72.074928
H   54.217812   36.052269   15.429188
H   63.306183   51.020248   74.321274
H   15.982747   52.127632   82.856415
H   33.579899   99.334442   19.018841
H   42.707550   71.791779   75.127663
H   22.727823   72.195175   99.082901
H   11.520895   25.279415    3.637185
H   91.671700    0.325056   39.483795
H   24.783943   23.144785   10.184021
H    1.343669   61.520958   98.761574
H   21.691338   90.591553   95.993568
H   95.667030    8.152556   15.559593
H   38.399197   86.196770   68.506218
H   98.869583   94.882744   51.629829
H   50.892334   63.950150   42.893654
H   26.837679   94.672737    2.999621
H   80.944183   13.184547   20.174725
H   48.032269   63.336903   91.155663
H   24.523045   67.573296   37.970627
H   71.056099   23.036034   49.126995
H   78.160156   35.465233   65.444435
H   62.027245   46.359169   48.271908
H   56.246822   94.832718   78.880684
H   45.709095    0.344187   91.609055
H    3.426046   25.740341    3.227458
H   10.677286   62.575703    4.388055
H   82.554977    8.990773   75.621254
H   56.518459   49.185776   91.871346
H   17.763237   99.716187   36.046471
H   35.461674   10.259192   18.221283
H   43.145985   65.203461    8.506827
H   59.057518   78.898849   31.050461
H   17.253460   52.305054   99.408623
H   55.690231   21.951859   62.381126
H   24.772938   16.498732   44.789211
H    0.103415    7.037530   14.755478
H   27.494331   38.781715   52.928459
H   36.990860   83.450706   78.970932
H    2.362219   59.538193   10.356514
H   14.223463   29.398968   14.999153
H   89.297333   35.585499    7.014520
H   13.471163   79.308517   58.941330
H   28.785204   50.738693   75.176514
H    1.830423   70.225937   85.280807
H   39.711746   43.532223   82.150337
H   80.366051   82.522911   55.126106
H   68.356934   29.004951   19.325367
H   19.439461   16.360563   15.987815
H   17.314581   74.351158   32.529770
H   36.244301   10.943972   90.730774
H   56.115517   39.891403   99.468971
H   43.141792   78.117294   39.171837
H   66.311569   59.854713   27.779007
H   15.187336   18.729130   92.702263
H   14.090047   36.089191   97.488007
H   49.182220   42.446465   44.352955
H   41.351147   73.678658   83.455162
H   77.460327    9.070023    2.995811
H   12.071710   38.171253   75.979866
H   43.281799   24.387695   70.782837
H   13.116890   83.336685   92.275352
H   33.363869   78.350784   49.866478
H   48.368484   94.499817   27.546186
H    9.622011   59.273727   86.194031
H   97.914436   22.057648   41.247185
H   31.037899    0.976260    4.622994
H   16.120672   23.452866   72.691666
H   40.059753   86.968857   41.405838
H   64.117050    3.253043   85.457039
H    4.377952   94.303757   10.999346
H   37.851219   55.565479   43.804241
H   64.895988   88.449524   33.084686
H   20.385881   84.297096   23.061848
H   52.243706   30.167799   79.112907
H   66.254112   81.706078   36.150089
H   25.485199   89.402557   97.570679
H   47.866203   67.532738   36.694672
H   26.044294   60.725433   72.422234
H   59.806122   59.373219    7.387794
H   63.754284   44.551296   94.399475
