200
TIME:    0.520, STEP:   520
H   18.075026   61.545734   20.127403
H   30.459936   36.965843    1.264102
H   12.269103   81.393707   59.139702
H   27.280907   80.246468   37.177765
H   12.237311   90.825806   49.632774
H   80.509705   45.215355   57.261726
H    7.415923   55.105461   55.070980
H    9.163270    0.977368   15.133542
H   98.799629   83.308533   40.888821
H    1.004709   70.976768   85.028145
H   21.953150    0.575601    1.809930
H   31.935638   49.496445   26.083635
H   18.046429   96.300484   49.815849
H   91.169380   54.388271   55.758236
H    6.103446   74.100044   42.289658
H   21.138920   14.429653   48.282814
H   97.379410   20.832283    1.837612
H   29.913330   96.627426   38.535473
H   74.341522   19.564968   46.605690
H   90.947060   75.859459   26.616535
H   61.445366   90.735611   13.012472
H   83.795509   59.516884   59.784592
H   86.620506   60.505630   42.417763
H   14.538941   90.611977   90.708092
H   15.416781   23.965185   35.419201
H   18.429312   74.762589   97.708809
H    4.318079   64.415047   60.339798
H    0.936147   81.680031    1.468031
H   22.861652   48.018990   36.698807
H   80.396530   28.265184   88.940231
H   12.995930   63.147251   16.537144
H   26.834347   70.068832    0.496767
H   20.357857   15.010509   76.599258
H   87.159584   63.883400   43.184402
H   34.551548   78.231186   32.089268
H   23.914986   43.537827   82.687233
H   94.300964   68.385605   88.056984
H   19.065155   51.998203    2.578094
H   42.707397   36.374218   50.655540
H   87.397507   38.537060   52.758881
H   80.587624   92.143845   10.818126
H   27.276079   37.235458   31.528648
H   71.660355   81.349739   60.725315
H   36.657486   76.833138   28.762449
H   38.343933   84.837936   54.468285
H   37.119514    6.551548   45.733074
H   85.250641   12.494308    2.318174
H   83.299110   65.546333   37.581741
H   97.908920   18.126553   61.368206
H   52.097408   19.065084   93.866699
H   71.547470   66.952110   16.772083
H   10.434673   40.517315   69.561623
H   59.728104   86.412193   11.589163
H   18.239342   88.092514   85.849586
H   65.347092   70.157822   81.717873
H    1.716253   65.452171   87.816925
H    4.631400   17.805031   46.651051
H   70.467758   65.088486    0.249777
H   22.272882   79.886398   13.898602
H   36.627308   94.416908   61.818146
H   49.512688    9.913530   34.055809
H   94.968498   17.088182   51.212440
H   79.161240   31.006868   75.438507
H   30.910172   65.551811    9.919090
H   75.849411   80.253265   29.379263
H   27.756063   27.439344   37.896255
H   75.716164   17.255844   91.620033
H   95.773430   92.086525   92.815071
H   26.482126    9.637046   58.435799
H   43.625179   46.510204   50.967640
H   58.342331   81.434967   80.770966
H   24.271160   16.461985   42.804836
H   86.380508   30.503796   90.119843
H   16.987364    2.810099   68.724037
H   82.554459    5.404128   54.447128
H   60.391090    9.191381   61.047791
H   94.244110   40.373932   68.185005
H   16.184376   11.068586   38.392952
H   13.659313   42.168041   28.736980
H   64.057037   89.105362   80.982819
H   55.251949   25.369764   96.976776
H   38.948391   63.555058   79.201225
H    9.907298   16.737665   82.087273
H   15.543283   71.015480    2.977393
H   28.937363    2.284725   49.847168
H   32.555740   75.977570   21.954117
H   48.404503    3.367567    2.413249
H   73.002998    8.123075   22.003178
H   74.255936   72.738754   78.179199
H   22.041695   98.597511   51.785061
H   29.505417   37.309940   79.509064
H   82.105049   90.992126    4.477376
H   60.560932   13.704216   87.755280
H   47.472172   84.374138   76.792961
H   32.219841   53.138664   79.601463
H   57.676613   33.969521   15.896630
H   83.103813    4.594525   10.388086
H   99.197380   32.789581   51.244633
H   30.673302   66.973160   53.873528
H   72.072899    2.477181   27.318766
H   22.358793   88.168091   82.124611
H    0.984219   80.892715   64.320107
H   28.983534   26.937143   34.415554
H   35.330284   68.456451    1.281513
H   24.967569   23.793076   34.165447
H   98.508003   13.064157   30.781740
H   78.922157   33.573498   54.956131
H   63.101444   45.024956    7.914457
H   79.912346   36.555260   12.672016
H   13.361331   24.156427    6.907656
H   50.878471   93.633614    0.992851
H   97.236938   70.386414   93.700554
H   52.230911   83.523865   87.844978
H   62.275688   13.360893   67.733521
H   54.506386   93.628113   16.955078
H    2.611538   97.606270   91.565918
H   21.062794   12.385390   87.444260
H   39.350521   40.778370   28.381584
H   29.495962   68.225998   69.701157
H   78.171852   52.263241   59.787857
H   43.476936   23.620090   78.344719
H    6.207665   20.847034   56.424400
H   38.986885   10.013350   32.335369
H   99.951935   57.242943    5.603574
H   68.538078    2.019398   83.552574
H   57.980526   70.013184   20.125120
H   88.426796   50.497299   60.241165
H   69.304100   89.766014   37.367382
H   95.913460   42.348324   78.509346
H   81.316666   22.822212   71.271812
H   59.911751   75.188141   14.111721
H   70.952629   88.828476   15.930074
H   91.523445   96.217476   99.457977
H   87.191010   20.181942   53.153423
H   18.258366   96.307281   43.550369
H   54.900497    1.267496   79.556541
H   69.356277   87.278023   69.277565
H   93.606651   55.478428   78.774239
H   53.631958   48.249344   71.483864
H   43.599617   95.661034   87.677338
H   64.479660   54.834564   23.954712
H   44.348282   49.518364   52.774143
H   46.004494   61.914646   89.939972
H   44.882881   16.392202   82.764320
H   53.463253   60.480881   58.224430
H   56.199379   66.799789   16.435982
H   51.353569   95.551598   45.277042
H   35.006874   62.996025   67.218529
H   72.670624   53.101830   95.160950
H   18.387489   91.731743   79.518723
H   66.350838   66.065201   49.230396
H   45.574020   99.362175   39.377762
H   89.183258   21.368923   93.635452
H   17.311615    7.569728   69.033272
H   24.715595   61.273602   65.818901
H   71.814171   44.223179   62.675308
H   62.242168   69.280716   84.071213
H   50.026932   32.167404   16.283962
H   99.566734    0.679306   92.220894
H   60.540485   45.519257   88.986313
H   56.706345   73.033958   75.971123
H   30.457682   21.605267   33.118286
H   77.271965   22.362034   37.115627
H   21.552496   28.405216   59.219238
H   56.273216   31.589247   12.575743
H   16.737839   55.530148   60.771214
H   70.078362   93.038155   55.189991
H   23.876812   43.671974   59.591084
H   97.877586   27.259642   36.195770
H   39.250816    8.346715   87.250275
H   74.015869    8.963668   35.952576
H   36.490089   55.047020   58.317947
H   43.082947   65.422989   82.545609
H   67.778061   67.840569   80.735550
H   58.423950   92.930222   86.065834
H    9.552190   49.173302   23.555376
H   32.541309   61.667946   98.620918
H    4.211573    9.467888   68.460526
H   68.440926   14.870423   65.860001
H   72.981133   57.458641   90.334892
H   76.305817   95.223289   35.209137
H   24.875326   30.447842   79.838028
H   52.743389   89.873016   11.613907
H   57.578506   25.738522   87.491188
H   89.143875   76.189911   77.243271
H    5.122127   38.586441   85.355568
H   41.101746   99.728401    5.469275
H   76.969208   79.084908   35.324013
H   98.509682   62.422031   69.743484
H   54.705276   56.750179   69.240616
H   61.196278   21.760582   77.301949
H   45.357536   92.538452   21.057951
H   10.319922   24.185326   64.220284
H   30.211794   74.705750   38.956135
H   75.285843   41.748775   20.900375
H   76.011734   11.070511   25.730236
H   11.322471   93.194298   12.917462
H   20.772055   91.841301   39.070137
H    8.179446   12.395357   65.494484
H    5.087376   25.506443   93.858719
