100
TIME:    6.713, STEP:  6713
H   63.349442    6.406606   93.000076
H   15.079342   68.632927    1.380927
H   95.158737   56.863914   44.542522
H   82.603363   56.075043   72.201538
H   35.043320   10.833891   83.688736
H   23.918156   93.935402   43.557247
H    1.142689   14.630856   15.418497
H   92.257729   69.360870   91.828148
H   88.609520   40.865875   77.528069
H   91.403572   12.773300   70.558846
H   75.828125   36.354527   93.119484
H   99.622437   60.178608   15.090454
H   15.696304   55.641346   57.984062
H   22.693275   84.384529   68.103355
H   62.142097   70.394585   28.074589
H   31.609413   24.585609   75.803223
H   84.287514   25.983829   84.499214
H   44.621746   68.184494   66.816444
H   49.821415   59.973907   17.029522
H   11.658890   63.251041   73.384880
H   65.917786   87.916779   75.039040
H    5.962189   52.995590   47.604309
H   96.113976   40.025826   40.284393
H   95.323250   17.135225    8.507244
H   89.489449   53.786339   86.116920
H   15.944681   28.206200   59.155876
H   83.209709   63.427765   33.164158
H   66.117325   69.779854   88.668655
H   57.138680   58.147778   39.844360
H   58.399174   24.693321   17.052834
H   80.254936   24.023586   78.267815
H   89.620270   67.035629   77.808037
H   43.211987   77.327492    2.557011
H   61.742119   58.516312   88.943863
H   13.888159   51.401741   33.475723
H   56.187145   11.219520   98.320839
H   23.663387   58.691040   37.423374
H   86.531853   36.102161   96.160057
H   61.716534   35.150444   93.773071
H   30.904202   83.734879   66.200485
H   76.465790   86.522606    0.501042
H   34.478989   67.928177   22.670998
H   69.059357    3.757231   86.361137
H   50.695011   25.320150   37.097305
H   74.352058   67.029251   30.560183
H   91.472588   90.957047   10.433527
H   94.179977   89.913284   89.902748
H   56.597927   64.511703   83.940338
H   61.254814   76.478859   76.690842
H   66.679932   32.909588   14.158624
H   43.040646   21.546812   24.191715
H   31.377701   40.823196   33.369698
H   48.121014   60.932983   12.987642
H   21.235275   97.671722   28.041801
H    6.295534   46.900497   57.447292
H    1.956793    5.472299   64.100433
H   21.827387   95.845421   94.449516
H   26.191614   42.927757   40.644760
H   19.717453   22.412052   96.126549
H   16.030785   43.772144   72.676903
H   83.161583   66.384293   90.997971
H   60.660439   65.458420   91.611374
H   29.805632   49.200233   73.139893
H    4.008867   78.331650   44.883099
H   98.772324   24.687710   20.721586
H   88.957367    8.550053   43.108795
H   48.972183   80.447266   91.165237
H   16.653130    1.460327   87.122818
H   91.476509   67.432968   39.205387
H   66.386192   85.786552   87.597473
H    8.863897   38.649017   81.622780
H   20.449862   28.733749   48.116760
H   69.290985   86.254089   89.626282
H   82.429085   24.554012    4.290409
H   85.831535   38.212116   10.288765
H   84.357170   37.813068   44.229385
H   76.466400   44.773960    9.797613
H   47.369274   11.773230   85.173546
H   83.425667   33.800526   92.577278
H   70.313248   43.331123   42.590172
H   42.235870   98.730728   81.209579
H   45.034714   88.005585   25.395210
H   42.487923   19.383093   69.256317
H   11.993752   86.604881   50.287670
H   25.462019   28.983025   97.002419
H   96.788681   55.635513    7.954309
H   15.500887   15.262988   43.645164
H   63.992516   67.893860   25.974480
H   94.995956   20.403147   73.287117
H   72.819992   33.085133   64.188004
H   98.746239   35.914635   75.228073
H   74.992920    0.361531   61.431976
H   15.769557   28.942585   38.131172
H   96.052711   20.442713   79.446304
H   40.529259   48.420563   70.343933
H   48.387878   30.641947   20.713989
H   29.755655   52.924942   51.118698
H   25.319681   18.618893   44.117630
H   88.921349   65.790565   82.753151
H   56.180195    6.368958   51.056477
