100
TIME:    6.565, STEP:  6565
H   73.358231   19.978613   93.135574
H   19.166302   60.613224   92.049538
H   92.613632   46.216026   46.280285
H   82.578522   62.172455   80.313354
H   36.368942   98.971130   87.701736
H   26.213718   94.095741   28.899864
H    8.899230    4.636980    3.844655
H    3.890244   56.556965    5.416682
H   92.247643   55.095428   86.843559
H   95.445930   10.647957   64.764046
H   89.594727   30.399389    7.375832
H    5.271469   52.760090   25.624863
H   25.140518   64.592049   72.690117
H   30.020897   84.840706   56.840488
H   60.344490   83.614677   35.191624
H   37.560074   37.530190   88.088379
H   96.188759   16.195225   71.026192
H   41.456738   75.386215   71.947304
H   47.516819   53.764709    9.232738
H   15.645920   66.394325   63.308342
H   74.700317    2.650126   79.056557
H   91.773285   52.799118   60.207886
H   98.089989   41.229500   44.518707
H    9.074440   15.364717   19.499151
H   94.782906   65.523712   85.023903
H   16.619349   32.581657   73.073387
H   95.971367   69.579483   30.227240
H   78.605728   62.871712   83.777176
H   53.920601   44.719921   46.840576
H   52.724064   28.356285    5.287619
H   74.430779   10.752229   89.977104
H   80.275421   71.125412   91.509148
H   32.786541   88.156044   89.223999
H   55.488884   72.079666   95.179031
H   17.571609   62.607430   24.470751
H   43.321606   99.627312   98.786049
H    9.468274   64.110962   25.761511
H   92.649590   38.810993   85.715416
H   67.963409   38.375298    8.115282
H   44.843609   97.589554   54.555767
H   86.580719   81.443687   97.014259
H   46.951584   67.347794   15.115289
H   67.785675    2.869365   75.670341
H   60.144871   22.836020   22.626879
H   87.190498   72.869217   17.895067
H   93.383110   88.134171    9.832254
H   93.023727   81.864700   88.482277
H   56.590023   62.987350   74.782928
H   56.929039   88.736916   82.594040
H   63.572666   30.656595   24.506773
H   43.050808   35.835495   22.631794
H   24.183319   54.557053   43.084908
H   45.050854   60.074829   21.583300
H   24.662247    0.085884   21.511360
H   18.079891   33.929947   56.188290
H    1.772459    5.627980   69.138702
H   12.445168    0.115874   80.373528
H   37.211823   56.904381   44.456772
H    8.045234   16.157688    7.488175
H   25.796806   32.395954   76.886375
H   73.825768   73.267593    2.537691
H   65.913246   66.835983   98.307236
H   19.757887   59.299355   83.288696
H   93.846237   77.525436   48.901745
H   92.898483   36.508434    6.938613
H   98.049286   15.907314   34.357880
H   60.846329   75.329956   84.019974
H   26.876457   92.996132   80.047562
H   84.100899   78.067307   48.488132
H   63.387398   78.343193   87.909119
H   13.563704   48.718781   83.397804
H   32.653126   33.645554   37.280304
H   78.940704   93.575500   93.420227
H   85.687813   33.920765   13.083727
H   78.695305   38.000965   99.069107
H   80.859062   28.327293   54.187363
H   63.024990   57.584171    7.172859
H   40.415966   21.450613   77.000755
H   76.327827   34.235249   90.926460
H   77.571426   51.393257   55.340538
H   39.339600   97.199600   72.363815
H   33.929520   87.045807   37.776646
H   33.126137   16.907995   55.161552
H    1.811639   73.940331   63.804729
H   32.668770   38.240929   11.349197
H    0.194258   50.198654   97.676590
H    5.616271   26.023811   36.587975
H   61.612267   79.736389   27.508995
H   91.924667   28.643122   74.497566
H   85.904587   39.174641   58.897896
H   92.689476   27.923351   72.102585
H   64.042419   89.230377   58.612488
H    6.282692   24.501637   26.686106
H   81.748634   11.463851   69.466873
H   43.087914   61.677917   66.942932
H   36.163696   36.486298   28.358337
H   41.503227   44.431473   59.630234
H   25.605356   11.295789   47.088425
H   95.971764   65.151466   95.148964
H   46.987782   10.166794   65.314156
