100
TIME:    0.200, STEP:   200
H    3.797611    3.680357   98.962906
H   95.706825   15.588425   90.616486
H   83.200714   88.292870   20.991539
H   81.510178   24.410543   29.200232
H   93.379669   88.788406   60.282372
H   24.914986    0.995976   98.551720
H   42.488201   74.843285    6.092817
H    4.166693    5.905177   89.830513
H   48.711617   67.064194   87.497810
H   69.374916   19.258446   15.520792
H   81.651520   74.289993   20.484795
H   48.208172   33.715492   78.693016
H   30.540737   49.607162    5.250943
H   45.179157    4.460621   72.460884
H   82.935402   52.157127   41.158825
H   93.481995   94.243538   16.437885
H    7.986605   95.223427   91.564507
H    5.418601   84.974548   92.612595
H   48.378616   86.743286   73.898499
H   87.235573    1.338625   29.832422
H   52.408264   36.306953   51.813339
H   81.525063   44.363914    2.225405
H   83.073738   92.995628   26.628510
H    0.459338   39.080448   92.220779
H   22.429926   70.312416   38.035233
H   45.739918   21.652138   70.425774
H   44.832767   34.163059    3.935030
H   15.665596   65.774506   73.386612
H   15.520114   67.237541   47.717804
H    8.662826   85.889694   99.288506
H   23.969179   39.977364   93.585686
H   78.385529   46.984703   80.749092
H   84.445740   53.849098   15.814534
H   86.552467   55.393860   63.325584
H   75.800514   43.801773   36.906837
H   89.944084    0.196533   19.956160
H   98.981987   97.210793   24.224377
H   55.722366   55.293667   36.554607
H   41.729389   76.238579   22.957428
H   44.355480   93.459633   53.770363
H   21.574146   63.041019   47.050953
H   13.646317   20.832972   12.196464
H   12.964225   64.699280   15.919615
H   66.588120   16.123510    0.286874
H   39.306938   24.000866   73.221985
H   75.397118   66.963921   84.102592
H   38.191883   36.529850   29.332220
H   56.250095   97.441574   80.952820
H   70.874016   15.885616   36.495895
H   30.084425   33.793522   69.675674
H   43.528057   50.335426   55.527843
H   14.852685   45.180641   60.933617
H   13.027954   23.168396   91.254250
H   72.054382    3.938933   40.641315
H   24.837364   76.038391    2.103258
H   93.816483   12.321949   85.818329
H    8.931681   83.775917   75.009071
H   11.167072   57.999107    8.403296
H    6.051330   47.219421   96.129105
H   45.821304   43.160912   57.918922
H   72.316788   69.268539   98.802887
H   91.812744   26.083786   86.305328
H   87.798836   93.514656   19.837372
H   56.773865   42.882431   21.710455
H   40.260323   44.870777   14.186444
H   89.059151   32.330555   58.011425
H   71.522179   55.275517   76.718124
H   66.550392   28.975857   75.763756
H   66.871910   35.415596   47.689556
H   34.438194   58.204346    1.310195
H   15.681601   81.796379   59.748722
H   57.475300   44.887947   71.265572
H   93.950974    8.414722   56.621265
H   25.788803   36.723263   91.322014
H   71.813400   28.928274   16.559208
H   30.386335   20.390303   82.471878
H   85.113831    9.209442   94.571472
H   41.376694   37.643085   25.485104
H   71.140465   52.914928   19.918526
H   89.717087   98.061409    3.691047
H   14.795738   31.350512   91.942444
H   56.329945   45.533707   70.056824
H   30.450756   10.595584   48.948822
H   63.929283   29.275852   45.162392
H   42.591827   36.374069   28.364548
H   46.692539   16.398119   55.672558
H   80.512260   88.811287   33.079952
H   59.174774   89.281654   93.659554
H   59.833687   83.036736   26.564598
H   48.652687    1.057963   31.361406
H   32.207401   84.230682   37.685375
H   93.084602   10.548323   37.335320
H   98.116859   33.624054   34.387627
H   66.559425   25.363684   40.303547
H   53.134007   31.814892   20.682781
H   10.440811   87.833733   57.118690
H   46.727074   79.158043   25.686775
H    7.599598   17.940552   52.835297
H   99.184685   37.712414   28.298847
H   51.662182   73.566216   78.423080
