100
TIME:    6.867, STEP:  6867
H   52.934891   92.284187   92.859085
H   10.826694   76.977257   11.091189
H   97.807022   67.943474   42.734310
H   82.629211   49.730438   63.760830
H   33.663956   23.177671   79.513046
H   21.529530   93.768562   58.808971
H   93.071045   25.030094   27.461496
H   80.153633   82.684540   77.689079
H   84.823906   26.059448   67.834923
H   87.197334   14.984806   76.588570
H   61.503418   42.551090   78.284859
H   93.745453   67.897873    4.128923
H    5.869217   46.327702   42.681816
H   15.068552   83.909859   79.822075
H   64.012581   56.638542   20.669025
H   25.416962   11.116142   63.020020
H   71.903786   36.169270   98.518440
H   47.915066   60.690811   61.478134
H   52.219440   66.434387   25.142391
H    7.510223   59.981220   83.869926
H   56.779205   72.586334   70.858650
H   20.726318   53.200027   34.489777
H   94.057854   38.773354   35.878418
H   81.014992   18.977510   97.069946
H   83.981392   41.572975   87.254250
H   15.228771   23.661213   44.667877
H   69.930687   57.025589   36.220142
H   53.123619   76.968056   93.758438
H   60.487221   72.120003   32.564514
H   64.304352   20.881859   29.294983
H   86.315208   37.832840   66.083824
H   99.343964   62.780384   63.551476
H   54.060085   66.059944   16.430548
H   68.248863   44.403091   82.455917
H   10.055254   39.741768   42.845764
H   69.574257   23.281788   97.836769
H   38.433723   53.051392   49.558018
H   80.166100   33.283512    7.027467
H   55.215664   31.794889   78.849152
H   16.399143   69.318527   78.316330
H   65.940796   91.807426    4.128980
H   21.500748   68.532089   30.533020
H   70.384674    4.681036   97.485344
H   40.862049   27.904989   52.153992
H   60.993408   60.953121   43.738224
H   89.484612   93.894363   11.059175
H   95.383102   98.288162   91.380806
H   56.606747   66.097855   93.468994
H   65.756416   63.723881   70.548325
H   69.913330   35.253567    3.390777
H   43.030071    6.678715   25.814877
H   38.863209   26.532562   23.260628
H   51.315639   61.825928    4.043512
H   17.669373   95.159729   34.837234
H   94.033768   60.396881   58.757336
H    2.148599    5.310306   58.857910
H   31.589853   91.401848    9.096319
H   14.724883   28.384367   36.678207
H   31.862671   28.919971   84.304436
H    5.868549   55.609531   68.296776
H   92.875877   59.222725   78.990219
H   55.194679   64.025009   84.644058
H   40.261181   38.691689   62.579651
H   14.583851   79.170547   40.701534
H    4.884877   12.387989   35.063206
H   79.496857    0.894519   52.214478
H   36.616653   85.772034   98.600174
H    6.015066   10.268077   94.484909
H   99.151131   56.367508   29.546314
H   69.506798   93.531670   87.273193
H    3.973438   28.171021   79.775795
H    7.765922   23.614952   59.398857
H   59.250061   78.637985   85.678528
H   79.038246   14.807407   95.140289
H   93.257072   38.431828   21.963425
H   87.997093   47.683628   33.867706
H   90.452728   31.444416   12.528730
H   54.604473    1.703445   93.677666
H   90.811256   33.348179   94.295021
H   62.760818   34.942146   29.322899
H   45.249557    0.324003   90.413956
H   56.590118   89.004272   12.511551
H   52.229240   21.958532   83.921753
H   22.588654   99.782860   36.222622
H   17.963438   19.349800   82.073799
H   93.245102   61.292786   18.648712
H   25.786196    4.065694   50.988457
H   66.469261   55.570423   24.377754
H   98.191757   11.828976   72.027596
H   59.204525   26.748753   69.693710
H    5.048626   44.229591   78.480270
H   86.387360   11.943574   64.365913
H   25.641285   33.563572   50.040230
H   10.936112   29.785730   89.830307
H   37.866875   34.625748   73.882812
H   61.107635   24.561113   12.759615
H   17.532305   61.762741   42.262100
H   25.022425   26.238880   41.026398
H   81.585106   66.455574   69.854805
H   65.745491    2.417238   36.220676
