100
TIME:    5.321, STEP:  5321
H   57.484779   34.058449   94.274490
H   53.521828   93.200272   13.611201
H   71.220993   56.717880   60.886883
H   82.369720   13.424908   48.501511
H   47.511337   99.259125   21.430687
H   45.508854   95.443459    5.702311
H   74.095573   20.636570    6.562193
H    1.666190   48.935429   19.636929
H   22.827599   74.700897   65.150337
H   29.430544   92.785042   16.053411
H    5.308563   80.344635   27.204174
H   52.754776   90.405037   14.174562
H    4.522934   39.819481   96.300468
H   91.617119   88.675056   62.171730
H   45.222740   94.734604   94.996155
H   87.577469   46.334976   91.351288
H   96.223854   33.913433   57.779968
H   14.853662   35.916462   15.072615
H   28.144810    1.574029   43.692287
H   49.158524   92.817177   78.611061
H   48.521034   26.494896   12.823597
H   72.509796   51.147690   66.145981
H   14.700826   51.346870   80.109833
H   24.660034    0.482882   11.888974
H   39.273956   64.178986   75.836647
H   22.290201   69.357773   90.055069
H    3.242692   21.288815    5.542122
H   83.571114    4.805977   42.657379
H   26.871346   31.854380    5.646254
H    5.024605   59.144981    6.393162
H   25.469536   99.200439   88.398354
H    1.728522    5.500360    6.672400
H   45.161648   79.172844   77.154655
H    2.925876   86.084892   47.585396
H   48.506104   56.693314   48.739113
H   35.182667    2.191858    2.697680
H   90.152191    9.668556   27.739178
H   44.064739   61.579823   97.930565
H   20.470554   65.481499   28.667536
H   62.013783   14.048811   56.680462
H   71.599121   38.758934   67.706154
H   53.399315   50.668007   52.781429
H   57.073727   95.408401   85.815254
H   39.579456    1.955561    0.995722
H   95.098564   21.952988   11.442668
H    9.438555   64.406754    4.778315
H   83.304977   14.211843   76.542641
H   56.523586   50.174545   97.811287
H   20.569145   91.765015   32.216637
H   37.475101   11.720373   11.507172
H   43.138660   55.935394    9.518851
H   63.723045   69.991135   24.747971
H   19.244915   52.861694   93.833427
H   53.467331   20.385208   66.617455
H   17.129017   24.911695   45.605862
H    0.222997    6.936547   11.487411
H   33.580025   36.011696   62.058830
H   29.842533   74.384789   76.498276
H    9.933292   63.594444    2.986540
H    7.888563   36.778118   12.268684
H   95.352997   31.121315   99.529686
H   10.064302   78.414963   54.597336
H   35.302845   44.187912   68.593506
H    8.422671   70.748886   82.674850
H   43.522537   35.864498   91.090279
H   74.468590   77.750450   60.802376
H   60.654785   32.323887   23.960499
H   12.808024   21.851164   20.577169
H   22.099493   67.453209   26.508530
H   38.188881   15.772646   90.528625
H   53.067177   33.359665   98.317604
H   35.226509   74.931259   46.200890
H   60.052292   55.106422   25.317337
H   13.074299   12.653324   86.998161
H   18.718512   36.226154    4.765532
H   51.451996   48.599541   37.893726
H   50.067699   65.358345   85.152916
H   81.970581    2.792733    8.297708
H   16.675137   37.889271   77.050667
H   38.574524   19.158203   62.512329
H   14.995369   84.329849   98.013145
H   40.567238   78.977737   41.839134
H   54.440994   96.105286   36.689007
H   16.226625   67.488571   77.425476
H   93.240120   16.052521   31.941032
H   28.828182    4.502505   11.289681
H   22.532293   16.472885   77.269302
H   41.605164   79.282822   40.407547
H   66.109238   97.907967   84.671883
H   95.890381   90.354538   14.430925
H   41.779930   60.748829   45.831585
H   71.999016   95.669739   34.913544
H   26.539690   87.176979   30.485676
H   61.521294   35.992016   85.586052
H   64.594444   73.107445   38.356144
H   33.414398   85.611542   92.612183
H   40.246086   73.042015   31.173676
H   26.396589   61.542816   70.885612
H   55.232880   59.787037   99.346611
H   69.717636   42.088161   85.151917
