200
TIME:    0.171, STEP:   171
H    7.350909   62.703991   14.159719
H   27.349285   31.870829   87.096054
H   19.583921   66.118034   41.949577
H   15.516628   76.167274   46.304028
H   15.942734   81.980453   54.650555
H   91.863281   54.687763   67.591972
H    2.359561   55.353088   48.315815
H    1.342372   85.906799   27.521538
H   84.626297   88.540657   49.402672
H   13.290142   75.865410   98.794090
H    9.788623   93.120186   90.781204
H   30.492477   40.181133    9.454535
H    9.480655   84.717918   64.119652
H    7.665169   52.915821   38.940884
H   22.953239   71.413422   43.148365
H   31.311607   28.809341   55.811481
H   80.961456    4.486923   18.782106
H   38.200687   79.850014   44.748787
H   62.729671   32.199940   41.468090
H   89.836731   80.652245   40.145504
H   57.257004   73.313835   29.001675
H   91.565147   46.176964   73.233681
H   97.071442   63.043144   50.791824
H    7.151764   87.437248   91.801201
H    0.247363    9.928836   47.872456
H   18.718210   59.274307    9.235456
H   97.559685   57.412251   46.307587
H   92.926788   67.283035    0.549715
H    8.162446   58.627022   38.742397
H   96.167458   18.915924    1.012686
H   13.451577   48.566532   16.110453
H   33.180794   61.889145   91.904343
H   28.790497    7.500813   72.336342
H   98.710197   63.502640   37.084251
H   51.299671   92.652145   34.743938
H   35.315159   51.495182   78.685257
H   84.284042   75.918266   85.436928
H   36.328003   42.970459   18.269815
H   55.623955   48.871407   42.897884
H   90.744469   39.972233   66.391693
H   80.483780    8.447020   99.233940
H    9.904894   44.553776   41.877102
H   77.944229   89.367004   47.766155
H   37.434982   59.882977   16.280571
H   26.419529   74.189964   41.873909
H   42.030788   15.634210   41.937454
H   78.673874   29.592640   94.666054
H   91.795654   65.551659   50.128189
H   84.411903   31.370617   61.116585
H   64.586548   17.490122    8.631642
H   79.849640   71.369461   30.603264
H   23.775785   34.510357   62.057903
H   50.316105   96.396866    7.025499
H   23.433523   80.727600   80.681366
H   80.119522   77.919472   93.004883
H    6.190186   74.049896   76.388794
H    5.627401   16.484352   50.394749
H   66.654831   56.975368    6.548805
H   29.637131   73.144547    5.457642
H   44.699158   96.376625   68.269768
H   50.642986   16.722614   44.252460
H   88.696953   16.261427   48.537384
H   69.546379   23.777084   87.212784
H   22.454233   65.053894    2.126945
H   70.239189   75.050430   15.108058
H   41.446331   13.880473   31.623032
H   88.752541   24.617430   84.409554
H   97.727821   91.293053   85.905472
H   14.068198    4.920812   62.853149
H   45.634155   40.427361   50.986279
H   58.495434   75.398720   71.435684
H   34.079590   25.635509   45.247826
H   75.303848   24.470211    1.806149
H    5.617449   10.481332   58.564041
H   78.304855   99.754601   70.857094
H   51.569702   21.512650   63.328358
H   95.719223   27.381491   73.121574
H   29.110918    4.713486   50.326988
H   11.005974   26.619217   36.466679
H   69.315788   91.051765   97.533905
H   40.439579   31.268219    2.157821
H   23.602522   69.831039   89.990318
H   11.268915   12.909429   92.298569
H   26.924152   59.603325   91.602631
H   41.365322   98.594223   59.737614
H   22.723246   88.188522   29.219181
H   32.762714    2.640328    1.613140
H   75.905296   21.112392    8.839660
H   63.577427   71.879051   76.915222
H   23.789730   82.954391   55.624615
H   44.135281   34.297142   81.061394
H   84.536057   87.930069   96.862259
H   43.981888   17.640291   97.694984
H   63.121948   96.912598   67.210052
H   23.376501   57.859558   65.066010
H   72.129524   26.166599   32.305916
H   78.369606   16.665735   95.357536
H    8.791546   27.366507   47.940273
H   38.581398   70.469231   52.636723
H   66.004700   96.806091   27.233561
H    6.787748   78.518616   65.690681
H   88.006493   75.612663   66.245209
H   21.749090   39.691544   29.538557
H   18.560326   67.812088   87.422310
H   25.430206   28.379505   22.850479
H   84.691467   30.151104   47.121197
H   62.389713   29.240019   56.580353
H   65.157600   31.625126   21.409676
H   71.043030   40.960629   95.796089
H    2.150221   29.022436    5.199561
H   46.286716   96.666382    0.747304
H   83.223366   61.609928   89.725204
H   58.292454   79.473961   95.436218
H   63.457909   20.884901   76.733307
H   66.152855   79.095322   29.191992
H   16.854404    7.815901   75.821617
H   35.411861    7.471103   83.375717
H   41.121189   23.600227   35.357750
H   16.241913   55.123058   86.949860
H   68.961716   45.297726   46.768787
H   39.834419   21.300915   89.780838
H   21.266312   29.114590   46.158520
H   30.572882   24.732662   21.982265
H    5.093910   69.801987   20.886770
H   78.981026   10.660487   95.095200
H   45.194439   60.464394   26.863644
H   97.101738   48.867752   73.719543
H   76.937943   87.028801   34.419819
H   91.618591   54.981308   86.462708
H   64.400795   24.476389   65.326096
H   45.823624   87.649384    0.774480
H   84.348465   85.367020    7.699802
H   92.663063   79.237701   96.861885
H    4.304003   11.233829   48.857700
H    1.017428    2.617735   59.587563
H   64.195839    1.715405   84.698135
H   68.778481   86.388695   51.903717
H   90.629799   66.375069   84.288605
H   44.509689   43.368690   71.566406
H   43.410568   12.399256   97.374741
H   47.201664   65.097923   12.681112
H   60.414764   38.914326   44.638390
H   57.223606   55.490982    1.711543
H   60.874809   29.025465   76.981026
H   37.058613   72.055458   46.812275
H   43.411961   60.786793   33.150822
H   43.099327   97.079964   47.775948
H   44.536530   75.987137   69.220848
H   63.340672   67.672897   98.630394
H    7.257452   87.914703   92.580338
H   78.652321   60.138119   51.865097
H   30.882851    9.018909   50.314632
H   72.970329   34.418613    5.886927
H    8.085883   99.558876   77.657623
H   10.876427   52.056808   59.504787
H   61.453766   43.357815   51.938137
H   58.589001   58.814461   79.938766
H   45.065067   37.766975    8.107603
H   15.539781    1.994322    5.163719
H   64.453110   59.759155   75.593140
H   53.278172   87.212616   85.250488
H   46.843746   23.413877   36.141735
H   62.249249   37.578220   37.260742
H    8.741967   18.152649   74.151001
H   59.614853   19.747072    9.146571
H   10.724889   66.634453   62.679008
H   76.087982   98.682991   51.490227
H   23.571938   27.793209   45.159473
H   93.135391   28.394600   37.019863
H   23.324123   10.980417   91.180359
H   80.683167    4.813249   35.981865
H   48.546608   68.009766   57.246227
H   36.339764   80.419083   92.365494
H   72.072929   76.198318   72.645737
H   74.644867   95.555603    2.475616
H   98.776970   47.288139   23.220547
H   36.126579   50.765690   84.021561
H    1.118473    9.135056   63.997906
H   77.366158   22.983591   69.941856
H   89.582809   53.714943   85.411636
H   82.677559   82.716782   43.323589
H   17.835922   30.021816   67.097206
H   68.811615   90.237350    4.704376
H   49.978493   25.092548   74.651848
H   84.630669   91.327126   78.681107
H   97.815910   35.641541   83.608864
H   28.949539    5.706497   97.736404
H   93.735970   64.301826   23.112215
H    8.616568   60.865707   65.754822
H   48.358829   58.648655   64.831253
H   44.524040   33.307201   79.794197
H   48.218563   83.054062   25.503260
H    2.567824   15.882489   56.225613
H   36.309086   60.777073   31.922714
H   87.262482   57.337311   22.041990
H   75.159683   10.214133   30.511705
H    9.002629   83.677956    1.137840
H   30.914787   98.777527   48.912655
H   12.833441   11.418827   81.102989
H    8.727429   37.330345   98.707420
