100
TIME:    4.265, STEP:  4265
H   28.897301   30.899017   95.241287
H   82.686867   35.978065   47.028160
H   53.066177   80.745430   73.280022
H   82.192474   56.932487    6.383164
H   56.969833   14.616061   50.062500
H   61.888004   96.587502    1.122856
H   29.442108   49.331654   23.981562
H   84.665703   57.577717   16.595280
H   48.786095   76.230988   31.620024
H   58.289070   77.622444   74.703766
H    3.535113   37.853916   28.923428
H   93.056343   37.472908   89.342064
H   71.908676    3.676640    1.230237
H   43.902840   91.929939   81.808594
H   32.380455   89.060638   45.758221
H   30.038677   38.696648   79.008728
H   81.141151   64.065826   61.648125
H   92.276451   87.293587   51.681065
H   11.697178   57.277145   88.059341
H   77.610374   15.244108    6.713620
H   11.185562   31.623188   41.483765
H   71.270050   49.745834   56.074127
H   28.800133   59.935249   10.322927
H   22.776817   87.833649   90.316742
H   77.043488   47.924324   68.037819
H   27.104044    0.569337   89.357262
H   94.302956   65.188248   84.592995
H   72.672852   55.515488    7.748433
H    3.908860   36.045834   55.563118
H   64.532227   85.280724   22.443672
H   83.910179    4.506821   71.945717
H   35.051800   34.674095    4.431640
H   70.779152   56.434456   82.021835
H   58.308060   82.860992   92.074165
H   74.754639   36.518913   84.437103
H   43.386539   19.482304    6.019680
H   88.867996   48.342758   44.530567
H   87.711937   80.900658   23.411030
H   65.047760   88.491264   31.001696
H   61.477203   12.907956   73.596436
H   43.768829    2.528086   42.827251
H   48.307236    3.272499    3.175131
H   47.977779   89.075882    9.539719
H    7.010283   84.247314   97.744141
H   86.698341   63.613876   21.078390
H   23.063328   44.265156    0.485501
H   75.054977   56.783226   66.407387
H   56.467190   39.298080   32.471931
H   89.701218   79.222076   74.342834
H   15.327395   95.649559   85.364723
H   43.219227   57.885368   98.386292
H   12.403784   67.980026   94.071869
H   97.341087   46.738647   55.165745
H   77.923820   37.618362   20.018883
H    1.208817   32.362621   36.622707
H   98.902695    8.047400   47.436142
H   66.632904   66.481911   61.624443
H    8.475039   74.110939    3.697840
H   26.648275   18.975494   84.057060
H   77.572250   55.611118   42.303841
H   28.740496   80.229271   81.862679
H   47.541435   88.244064    2.375138
H   63.612621   16.246975   41.006615
H   35.909210   64.996445   11.343563
H    1.606604   20.205158   92.749611
H   39.339333   30.246925   98.363892
H   45.379868   95.815460   72.976303
H   85.752937   61.457230   70.094261
H   69.470627   43.330627   92.738678
H   16.795637   62.661415   92.752258
H   86.598915    5.208937   10.985615
H   22.298683    9.978002   68.886192
H   28.905947    7.343174   52.395706
H   36.321148   79.482460   49.741936
H   67.802498   34.719563   24.714197
H   26.484468   80.919762    8.949656
H   54.189926   56.885403   66.477623
H   32.357784   71.843651   49.980843
H   66.033226   40.991077   65.271858
H   90.361450   76.673622   53.487633
H   94.333389   73.405045   34.897427
H   61.334221   72.081253   30.141272
H   87.643044   78.448822   36.120220
H   43.575005   77.124214   73.874496
H   44.659607   82.106712   34.308411
H   53.135067   65.717369   37.957855
H   52.004433   93.252670   26.915297
H   24.607405   63.828026   51.388748
H   44.195175   56.703651   93.308601
H   89.255203   33.802216   76.679611
H   98.563934    3.730058   23.530802
H   93.863235   16.250832   14.794386
H   58.848259   55.489403   48.823528
H   59.457111   71.937622   14.386076
H   82.850792   67.697777   14.092355
H   46.193115   27.310703   47.156227
H   24.066605   12.440087   91.904633
H   22.521345   52.551605   87.788445
H    5.538433   55.235035   87.798225
H    4.127512   69.184181   86.879181
