100
TIME:    8.422, STEP:  8422
H   47.776360   49.683495   91.435440
H   67.881363   61.241512    9.138656
H   24.537371   79.816574   24.478508
H   82.890213   85.663445   78.524849
H   19.730738   47.817692   37.349426
H   97.413818   92.083916   12.804534
H   11.573674   30.031679   49.064533
H   57.933701   17.212420   34.913803
H   46.599037   76.551666   69.953415
H   44.725258   37.312443   37.476082
H   16.861099    5.120128   28.500174
H   34.397263   45.841839   93.442329
H    6.706658   52.213234   88.151901
H   38.073692   79.116920   98.157097
H   82.899605   17.738266   45.886208
H   62.892944   75.110008   33.941681
H   46.859932   39.020267   40.076241
H   81.162918   85.024559    7.579069
H   76.439362   31.666637    7.066606
H   65.609726   26.963614   89.741554
H   64.503304   17.780270   28.657042
H   69.805687   55.264313    2.067194
H   73.296364   26.129396   91.386307
H   36.532532   37.579803   81.583359
H   28.364716   18.253181   98.738319
H    7.896854   77.822922   98.334106
H   35.840294   92.383987   67.076462
H   21.918077   49.550190   45.159676
H   94.298790   13.201900   59.059410
H   23.929718   82.394760   52.913239
H   47.515064   77.272285   43.057243
H   97.527641   19.821896   19.597313
H   63.592503   52.288551   56.517227
H   33.952255    1.896732   16.945883
H   71.355354   22.006401   37.453915
H    4.748010   45.077896   92.948921
H   87.578331   96.102303   72.086021
H   15.895926    4.823641   16.758926
H   89.576225   97.917686   28.157677
H   69.934402   23.743639    0.659577
H   59.667374   45.160530   40.763149
H   90.453522   74.630035    9.919206
H   83.766937   14.008877    9.803831
H   41.570469   54.008072    4.194064
H   26.110001   99.605919   76.804375
H   69.411217   23.549248   17.376600
H    7.536260   82.854805    6.309246
H   56.701656   82.113861   89.683205
H   11.215469   34.939941    8.516132
H    2.561552   58.921665   94.665947
H   42.923298   56.553871   42.208282
H   14.437750   82.240082   21.184643
H   83.565865   70.842346   13.735472
H   81.656982   69.795120    3.456637
H   70.222664   96.668274   71.978210
H    4.085350    3.674597    5.922043
H   30.170197   46.533302   56.989754
H   98.936707   81.533089   96.622704
H   54.500942   94.627525   64.930206
H    3.254636   75.131638   24.068871
H   90.966476   86.909302   57.749615
H    0.004664   49.551285   14.285305
H   45.830570   32.581329   55.948639
H   21.363045   87.641235   98.479874
H   66.608719   88.192841   79.872940
H   83.972237   23.590630   44.158726
H   11.855486   39.532497   73.676132
H   98.600449   99.199883   68.822906
H   76.654175   44.635124   32.019608
H    1.071200   71.658340   83.980682
H   54.594105   22.367622   61.126045
H   79.735718   71.956444   73.374435
H   57.861130    1.725601   45.810925
H   44.806240   16.391884    2.747522
H   68.167389   40.716160   39.863270
H   24.757807   47.344566   29.235971
H   31.680481   96.854248   40.107666
H   27.658464    0.030538   79.559875
H   65.376869   28.780651   11.645773
H   86.502892   50.233452   95.358482
H   75.689857   16.411814   83.354370
H   73.275620   99.088425   82.419228
H   50.585258   47.963779   32.011868
H   29.569866   32.848366   94.198174
H   42.249252   22.074413   31.334492
H   57.461987   18.407158   26.632599
H   29.641191   91.004143   25.136757
H   91.477959   31.136982    8.254974
H   30.466274   25.248533   59.309700
H   21.720610   62.774445   25.283701
H   68.685631   28.194683   11.319358
H    1.441614   28.893955   94.001457
H   25.319798   80.219414   70.290771
H   61.218468   24.125843   94.681358
H   10.979073   95.337570    9.615499
H   89.544235   63.156311   32.441841
H   94.103905   50.999962   52.831871
H   22.020906    3.181227    9.808764
H    7.508440   73.170433   39.606976
H   62.332615   62.508610   86.422104
