100
TIME:    1.630, STEP:  1630
H    7.092391   72.542038   97.653702
H   55.928841   93.120781   80.820183
H    7.773080   91.173195    4.201148
H   81.750198   65.494102   50.818226
H   80.571289    3.409203   21.508274
H    2.740056   99.442192   40.170124
H   67.540565   71.403969   17.920982
H   91.771507   29.617718   58.533714
H   13.559486   29.575638   97.483727
H   30.295412   39.787743   71.520531
H   48.636398   31.828907   82.739349
H   93.626587    5.394220   76.904030
H   39.578003   63.090111   63.119293
H   74.373650    0.051747   81.283958
H    0.326077   24.428871   72.421005
H   35.986115   69.165337   97.737076
H   93.017914   89.791489   21.762877
H   35.976776   15.433968   43.037399
H   70.649254   46.734970   49.236179
H   48.602005   71.197617   27.310587
H   67.550125   93.945251   13.003677
H   18.643009   46.251350   80.463783
H   63.981178   81.365532   85.713394
H   67.596855   56.231022   86.016266
H   71.285881   56.899742   48.588623
H   39.185001   79.039139   36.392677
H   21.521698   74.721268   32.311832
H   95.007645   32.522594   20.651083
H   46.613754   96.978638   80.121666
H   63.494701   50.497543   12.969047
H   80.221321   68.215179   80.428284
H   68.676392    7.478899   48.366798
H   85.172806   49.223442   44.640228
H   46.972954   24.342842    3.082510
H   40.255623   35.704750   23.984344
H   14.276822   12.528467   15.036157
H   36.137383   44.842628   36.902836
H   96.621361   29.120495   37.465740
H   77.442551   45.712303   85.899170
H    9.666010   59.588909   66.280289
H   23.848953   12.112586   80.746628
H   85.126068   85.013130   79.380295
H   25.280981   73.274567   19.210255
H   75.272926   40.089241   40.106770
H   15.265476   67.577225   95.593216
H   57.058270   94.006538   89.789711
H   53.291370   13.669267   41.551460
H   56.326466   12.165766   69.433098
H   12.678174   97.453514   79.453598
H   60.076107   55.559040   69.659386
H   43.420261   12.277441   70.603317
H   84.348259   12.486891   67.056686
H   42.692062   31.460022    8.201302
H   38.945080   80.611885    3.744659
H   10.995085    1.399010   14.237837
H   95.605728   10.818895   37.137756
H   99.587646   42.514168   11.014067
H    4.684065   22.954285   71.570389
H   18.831863    7.639576   86.347565
H   51.454609   53.075970   17.248497
H   62.522411    2.770476   87.308220
H   41.059265   12.772882   21.601677
H   84.794876   95.999092   21.733986
H   54.969391   50.661285   82.886452
H   97.018883   30.658371   47.360241
H    1.211928   61.240913   42.563671
H   56.790756    4.717205   45.759228
H   67.770500   10.758290   44.126026
H   38.141602   32.664917   58.002998
H   63.404335   30.126913   98.300812
H   70.272377   84.495308   42.598148
H   39.566120   97.428375   75.963341
H    0.712074   37.679424   19.952641
H   94.316643   46.230431    6.332848
H   40.760414   30.962996   24.963249
H   64.196465   12.039915   86.251183
H   14.948042   85.269760   19.875196
H    8.560695   44.139320    4.457699
H   39.683456   48.727390   35.864861
H   19.587387   20.180273   80.495277
H   42.779858   46.144756   77.410088
H   63.624859   54.872696   50.478104
H   20.932751   34.462463   85.149384
H   62.300724   51.642803   14.547462
H   72.961853   46.927452   89.742310
H   13.774929   68.929329   54.975441
H   76.018730   84.838638    1.267705
H   82.194946   74.792908   78.800087
H   89.508980    3.416838   14.863852
H   22.224262   42.213470   82.485756
H   90.728828   61.445354   67.884354
H   98.890450   18.097441   64.577904
H   89.868370   76.470932   45.016556
H    4.772837   12.103757   36.721298
H   28.411076    3.723366   53.541924
H   28.552933   31.363459   83.257202
H   33.220230   61.222820   43.446503
H   12.849948   30.116150   29.956467
H   31.062508   43.876583    8.514217
H   40.469894   36.834972   40.693794
