100
TIME:    5.578, STEP:  5578
H   40.104652   10.490962   94.039200
H   46.423897    7.126423   29.815857
H   75.640533   75.207794   57.869282
H   82.412857    2.835854   34.413490
H   45.209412   19.858721   14.463037
H   41.522640   95.165031   31.154081
H   60.625683   37.991207   26.659945
H   81.466492   71.169052   96.039909
H   16.510048   49.991470   48.972290
H   22.408102   96.475182   26.117964
H   81.403061   90.685654    2.448677
H   42.945122    3.287078   95.881401
H   88.123215   24.278053   70.763603
H   78.891823   87.882912   81.728477
H   48.348183   71.778091   82.643402
H   77.244293   23.856888   70.018280
H   75.557503   50.911213   81.175690
H   20.349554   23.412056    6.163927
H   32.147655   12.356074   57.231297
H   42.235100   87.358437   96.108833
H   33.270287    0.909065    5.848213
H   97.148636   51.488861   44.260040
H   11.269015   49.256706   72.757004
H    0.780973    3.557345   92.802170
H   30.082146   43.796959   77.734657
H   21.118650   61.761230   65.886810
H   81.082092   10.605396   10.641672
H   61.885365   16.801872   51.153328
H   32.459496   55.171665   93.497772
H   14.878866   52.784294   26.823261
H   35.584435   22.245865   68.065331
H   17.955387   98.399841   82.880669
H   63.265293   60.369209    0.307244
H   13.785024   62.532310   36.758110
H   42.117966   37.266159   64.387939
H   57.523502   22.321678    1.889462
H   14.802129    0.256002   47.989849
H   33.443333   56.875973   16.066135
H    9.621989   59.881584    3.762973
H   37.808270   89.989494   76.900475
H   54.034683   47.576447   73.760963
H   30.301556   62.203125   64.853935
H   59.287418   96.949554    4.379385
H   23.169903    6.269454   26.123533
H   72.804787   11.813724   33.435406
H    6.122078   69.308640    5.822417
H   85.312790   28.189079   79.009270
H   56.537312   52.821564   13.712913
H   28.080795   70.479065   21.964813
H   42.865215   15.632078   93.532150
H   43.119053   31.123972   12.228124
H   76.213051   46.142971    7.875681
H   24.576206   54.351868   78.908165
H   47.516441   16.191154   77.958458
H   96.665855   47.434574   47.792103
H    0.543108    6.666208    2.738525
H   49.871933   28.596123   86.501595
H   10.706414   50.114571   69.878769
H   30.201757   74.453178   83.257378
H   90.928726   56.532719    4.958992
H   11.564865   19.169537   79.490776
H    0.943705   76.022842   42.968102
H   52.751598   26.650625   50.970245
H   26.070442   72.148865   75.698486
H   53.724342   15.338158   15.023860
H   58.680595   64.974174   75.998222
H   40.035492   41.208065   36.368790
H   95.055000   36.549656   32.863255
H   34.909100   48.986824   10.389338
H   43.394684   28.698929   89.987457
H   44.906517   15.873653   95.235298
H   14.035851   66.401978   65.018143
H   43.295685   42.394852   18.727242
H    7.417522   96.387779   71.727806
H   31.109499   36.592815   24.248528
H   57.528374   65.071709   20.601187
H   73.401848   43.082333   89.697945
H   94.044907   85.988884   22.491343
H   28.998478   37.134380   79.917290
H   25.973225    5.158797   40.371490
H   20.024607   86.988632   13.373240
H   59.855019   80.644989   20.341158
H   70.696800    0.403222   61.165104
H   33.907623   89.480392   53.952168
H   80.726585   99.976753    7.027864
H   22.912586   13.942557   29.136597
H   39.696739   97.786736   89.524017
H   45.738579   58.717327   37.742554
H   71.442490   83.598381   82.569954
H   73.169159   79.782150   23.617956
H   52.297417   74.626587   51.258953
H   91.014412   14.998382   39.809547
H   43.013947   94.886665   50.359882
H   86.359932   51.583935    2.915157
H   60.151375   50.087002   44.261936
H   54.641525   75.462677   79.337875
H   19.846983   87.790810   16.393509
H   27.339712   63.731018   66.771950
H   42.989929   60.894863   77.821449
H   85.682098   35.494144   60.395145
