200
TIME:    0.812, STEP:   812
H   27.047422   60.576649   25.120422
H   33.062317   41.228706   13.118491
H    6.149062   94.174500   73.522270
H   37.123520   83.659431   29.542038
H    9.137073   98.226501   45.434517
H   71.010437   37.290016   48.619041
H   11.646483   54.898277   60.722866
H   15.706826   13.585525    4.769015
H   10.657526   78.930939   33.765484
H   90.725723   66.886101   73.510506
H   32.130779    6.813084   11.037407
H   33.143097   57.290344   39.997017
H   25.213207    5.991943   37.848198
H   77.368263   55.620235   69.828911
H   92.005875   76.347878   41.571198
H   12.627785    2.398519   41.983757
H   11.115037   34.507984   87.660072
H   22.979912   10.665318   33.336941
H   84.056885    8.993765   50.904198
H   91.876045   71.849449   15.297151
H   64.949669    5.311841   99.634888
H   77.294838   70.678078   48.532059
H   77.876457   58.382553   35.411385
H   20.723824   93.274178   89.792473
H   28.108475   35.708946   24.999859
H   18.187597   87.721603   88.064735
H    9.972938   70.274117   72.080215
H    7.637902   93.725655    2.236362
H   35.160130   39.143501   34.988983
H   67.201370   36.087780   78.839462
H   12.614700   75.346596   16.894146
H   21.524426   76.912582    7.686207
H   13.302467   21.293459   80.165939
H   77.495461   64.201973   48.288254
H   20.538336   66.165512   29.867632
H   14.376684   36.880096   86.035591
H    2.681781   62.083206   90.249123
H    4.621692   59.551502   89.449646
H   31.900421   25.918442   57.146187
H   84.597183   37.336285   41.352631
H   80.674507   78.503128   20.510246
H   41.810135   31.112314   22.869812
H   66.402786   74.641884   71.567940
H   36.006973   91.015205   39.205357
H   48.321060   93.746841   65.005699
H   33.010368   98.952309   48.908779
H   90.753265   98.188293    8.719832
H   76.190254   65.541878   27.084427
H    9.201652    7.045784   61.578732
H   41.647991   20.382818   81.513641
H   64.601242   63.256218    5.200090
H   99.272697   45.543194   75.839516
H   67.604942   78.064568   15.402825
H   13.893358   94.254562   90.173714
H   52.987350   63.663834   72.274300
H   97.973320   58.257767   97.378571
H    3.798087   18.910011   43.518787
H   73.657944   71.876541   94.978874
H   16.111391   85.527145   20.960758
H   29.873783   92.777260   56.420227
H   48.566994    4.216532   25.524090
H    0.217113   17.779909   53.451363
H   87.205765   37.055389   65.587250
H   37.985527   65.968407   16.438698
H   80.543350   84.606354   41.320057
H   16.301359   38.783440   43.144913
H   64.808937   11.096358   97.652870
H   94.138237   92.750404   98.596169
H   36.868347   13.583007   54.739906
H   41.944317   51.599575   50.952045
H   58.214233   86.485352   88.581573
H   16.064564    8.786977   40.760845
H   95.648087   35.551952   80.342102
H   26.500555   96.391808   77.225258
H   86.110001   10.130927   40.717300
H   67.771736   98.882576   59.139694
H   93.009918   51.244400   64.054695
H    5.369286   16.385748   28.408028
H   15.881357   55.174706   22.262632
H   59.656063   87.476852   67.134918
H   67.645103   20.434668   92.641510
H   51.788219   58.303059   70.174248
H    8.768065   19.940660   73.543724
H    6.021210   80.563759   12.494138
H   18.539185    5.372533   41.572067
H   40.781830   65.760956   15.875616
H   61.491615    3.976030    3.082698
H   70.574715   97.255341   33.016731
H   83.193802   73.449417   79.230713
H   20.579155   11.686480   48.572598
H   17.265419   39.830677   78.210266
H   80.071083   93.554077   10.848759
H   74.433060   10.410995   79.438965
H   34.378376   73.883507   84.810753
H   39.618309   49.188805   91.762932
H   45.584206   40.498039    2.167552
H   87.064812   94.494225   22.963799
H   92.893120   37.619755   54.359924
H   24.056786   64.048080   54.908333
H   77.150017    7.221663   27.390055
H   35.386868   96.241577   95.874489
H   11.841603   85.310410   62.709419
H   35.036423   16.265505   38.495739
H   49.360863   68.995575   12.877696
H   24.580492   19.955719   43.632412
H   10.068544   98.767960   17.110392
H   91.031929   36.905949   53.246563
H   61.380482   56.236275   96.623543
H   87.333092   32.869392   26.791706
H   22.741411   20.085154    8.336779
H   54.720284   91.096169    1.198295
H    8.961147   77.729187   97.026634
H   47.159363   86.912323   81.493568
H   61.286552    7.065756   60.204178
H   44.762062    5.787200    6.716491
H   90.695076   89.064949    4.738933
H    9.057109   16.497076   90.848312
H   37.869045   55.150913   22.544792
H   40.584877   79.188919   55.270252
H   85.877754   58.091122   70.681290
H   46.524544   25.560490   68.776390
H   93.609070   13.929768   65.013489
H   46.026680   97.697952   40.998104
H   95.650085   46.735603   92.816277
H   59.800713   94.790062   73.895134
H   68.678284   78.002167   14.487118
H   81.168678   51.860703   48.964127
H   62.917046   92.056175   39.833538
H   99.506874   31.778606   71.854958
H   95.469772   21.438202   76.246452
H   71.698952   64.762115   25.270687
H   59.744652   91.724594   22.816151
H   90.569954   10.423639    1.630607
H   72.873047   27.668407   56.746838
H   32.683262   91.027435   30.132431
H   47.123306    0.892741   75.254692
H   69.839706   88.022102   83.813850
H   96.097313   46.361225   74.160500
H   61.264343   52.332870   71.414803
H   43.757790   81.657188   79.563751
H   78.935745   46.247574   33.387146
H   30.905884   58.390511   59.581135
H   36.617729   67.288490   80.090942
H   31.502815    5.822216   87.603065
H   67.188629   50.796707   67.772705
H   66.898613   71.830124    2.451017
H   58.259697   94.272850   43.186268
H   27.033638   52.126671   65.543236
H   80.476776   40.910286   92.258148
H   27.695724   94.919701   68.591446
H   56.059341   71.024246   47.026005
H   57.865814   91.282005   30.227142
H    2.748272   10.450558   83.385422
H   25.030327   14.272284   61.817142
H   36.294498   68.985794   71.100975
H   80.482475   44.947208   71.659790
H   65.298691   78.038132   87.528732
H   54.178406   27.482376   23.124928
H   86.202263   99.578964   81.391640
H   57.266758   33.605072    0.192047
H   59.574615   61.171013   68.207298
H   16.747347   20.092045   30.588638
H   89.841118    9.630810   36.994213
H   32.270905   36.983295   46.726944
H   53.477348   41.497314   15.444849
H   21.768730   46.239178   59.175007
H   65.050255   88.315254   58.285496
H   24.131893   56.957359   71.665665
H    1.845650   26.310049   35.506271
H   52.576302    6.143159   83.962067
H   68.437500   12.436225   35.928070
H   26.402376   44.201057   59.214630
H   48.724808   52.875126   74.329544
H   64.182419   60.856972   87.510239
H   44.852295   90.733627   72.336006
H   18.565422   50.753197   23.842606
H   29.541599   70.790436   10.834885
H    6.799561    9.746361   72.194290
H   60.972942    8.082089   62.445316
H   59.091301   60.590904   94.454063
H   70.974731    5.687539   28.420261
H   30.765028   30.804287   90.497971
H   39.297604   89.563354   17.399460
H   63.937714   26.278759   98.233559
H   92.919968   63.524963   76.040268
H   11.234951   41.050369   86.816994
H   51.269348   94.727028   11.939314
H   62.940857   91.453560   45.541740
H   90.053017   63.724171   73.080704
H   60.015198   55.161770   72.929825
H   75.144653   12.099800   75.216743
H   42.963783    0.473836   17.338667
H   16.805870   31.132111   70.910316
H   25.110727   86.359283   44.840824
H   65.265274   28.706360   19.945213
H   76.724625   11.787022   21.729694
H   13.263427    1.156507   22.773176
H   12.285749   86.037926   30.835136
H    4.285560   13.212397   52.435219
H    2.041812   15.613426   89.801926
