100
TIME:    4.138, STEP:  4138
H   37.485748   42.545593   95.357559
H   86.194405   29.095736   39.019928
H   50.883171   71.608391   74.770241
H   82.171158   62.164726   13.344678
H   58.107361    4.436450   53.506088
H   63.857845   96.725090   88.546043
H   36.097897   40.755627   14.049996
H   94.647652   46.590984   28.256390
H   51.907997   88.441483   39.614666
H   61.759789   75.798912   69.731201
H   15.348343   32.743763   41.156330
H   97.902946   31.107019   98.382210
H   80.012833   11.356888   13.849686
H   50.191216   92.321388   72.144455
H   30.835609    0.404891   51.863468
H   35.145142   49.804497   89.550720
H   91.353706   55.666142   50.086815
H   89.563438   93.469566   56.084866
H    9.719101   51.948982   81.367889
H   81.032646   17.941133   98.066948
H   18.721924   44.266796   44.930260
H   59.094437   49.577240   66.889359
H   30.495766   60.968132   13.956668
H   34.576485   86.310486   99.748337
H   81.585846   57.996384   67.099892
H   27.682981    4.323843    1.300268
H    5.254087   70.466995   82.073769
H   83.389252   49.587555    3.550287
H    1.147219   24.523594   61.566628
H   59.662369   88.423943   12.347874
H   78.912422   93.118263   81.993553
H   27.032911   38.182602   16.188637
H   61.833729   65.726524   70.580673
H   52.942108   94.499817   97.424614
H   77.911423   46.119102   76.703079
H   32.346516    9.535078    6.419244
H   76.686569   52.993637   34.523426
H   92.961617   83.224159   14.449326
H   70.407898   91.258537   43.309044
H   73.439445   24.797314   63.604755
H   52.448532   98.170334   39.835186
H   59.721268   97.572754   97.208603
H   46.883854   88.314301    0.366485
H   15.119783   82.119537   85.326294
H   97.715111   68.625122   10.210353
H   24.701794   41.842823   99.969276
H   74.062790   49.876671   65.188469
H   56.460407   37.990021   24.613884
H   85.988266   89.740814   79.408417
H   12.663798   93.717506   94.247902
H   43.228916   70.146248   97.047226
H    6.232164   79.764191    2.408826
H   94.707527   46.002258   62.542233
H   80.865501   39.690910   14.415057
H   11.320440   21.232485   35.542347
H   98.743790    8.181112   51.759521
H   58.581722   70.146416   49.545723
H   17.931633   86.104393    6.969206
H   16.632414   13.609167   93.806465
H   85.953522   45.849117   45.916023
H   20.728872   86.135887   91.765175
H   52.048912   89.426163    8.121739
H   54.990086   24.913597   49.715385
H   27.188112   64.304626   14.791996
H   96.566032   30.348434   80.922813
H   47.141182   36.560493   90.854660
H   55.569168   91.424255   66.844894
H   94.525658   54.194107   64.022926
H   63.141426   52.456039    0.703383
H   14.222635   56.273239   93.019684
H   90.631615   13.850124   12.509262
H   32.770393   14.193103   59.587849
H   37.186630   13.624767   55.652290
H   39.117489   87.518791   57.287987
H   61.679211   34.538372   15.086394
H   23.481745   72.780724   17.494961
H   42.658653   67.893112   64.231636
H   26.391094   80.147408   42.966736
H   59.943161   41.364117   63.855179
H   96.589752   83.589867   64.428825
H   91.849045   72.091171   27.307104
H   51.804764   71.251846   40.760864
H   79.608650   76.328796   24.024059
H   34.838135   66.256660   85.474564
H   50.843338   90.050026   46.619675
H   56.058338   61.052315   29.138626
H   43.522392    2.486616   20.859465
H   22.563440   73.996010   52.709404
H   41.559677   63.774925   94.347298
H    0.483233   39.027672   72.139191
H   93.366577   96.872246   20.848795
H   84.466522    6.700294   12.374382
H   50.707283   51.678589   39.002422
H   47.181698   64.234604    5.823161
H   85.046394   79.073051   11.174170
H   35.703445   32.325447   53.715904
H   34.147003    5.152014   99.208450
H   22.055288   51.470276   89.821266
H   11.588402   54.687588   98.435173
H   96.238899   72.443672   99.112930
