100
TIME:    3.272, STEP:  3272
H   96.050690   21.962151   96.150406
H   10.253305   82.147842   84.396805
H   35.997475    9.305057   84.931892
H   82.025803   97.842827   60.815166
H   65.864044   35.022732   76.987564
H   77.283455   97.663292    2.782619
H   81.484306   82.278923   46.327599
H   62.713547   71.670792    7.769157
H   73.195930   71.703903   94.125832
H   85.426262   63.364433   35.818298
H   95.901566   97.898758   24.574209
H   30.957596   87.699265   60.024406
H   35.130653   63.746826   99.919273
H   93.071007   94.990639    6.239895
H   20.300659   77.759201   93.489845
H   69.964325   25.548126   61.436867
H   60.992378   98.388947   71.251419
H   71.063683   35.583412   86.109070
H   96.230339   15.616786   35.743656
H    4.367523   36.331097   39.105583
H   70.111603   30.479454   68.432800
H   76.070175   48.427612   40.637238
H   42.058113   68.011253   38.735397
H   15.037292   75.924194   64.067665
H   12.559012   26.673271   60.704262
H   31.655706   30.115294   82.486336
H   79.931046    6.463013   64.895424
H   56.459263    9.165588   74.927910
H   82.317032   45.953201    2.503774
H   26.455860    9.857970   43.502869
H   44.829510   15.462369   50.508720
H   72.353310   62.106750   96.358650
H    0.832062   29.086769   92.564552
H   16.350822   73.863503   33.906021
H   99.437210   11.582103   23.970573
H   57.041988   41.517864    9.392533
H   93.626564   84.707504   66.286125
H   28.754059   99.067879   53.336491
H    6.959187   10.126513   27.230856
H   55.006969    5.869145   95.468178
H   11.633993   68.451797   19.432600
H   37.552452   58.709152   56.522354
H   39.424488   83.121155   37.813671
H   70.419830   67.610443    0.653137
H   72.833107    2.796384   36.105160
H   35.874325   25.325184   96.454323
H   67.297165    2.779612   56.871132
H   56.414158   29.071581   71.030754
H   60.670898   61.461411   13.952060
H   94.503014   80.543037   54.815487
H   43.294987   53.753174   87.916275
H   64.145706   60.122910   59.262470
H   76.749550   40.980896   12.836205
H    0.924221   53.823402   76.201080
H   80.271561   45.334084   28.177195
H   97.660233    9.092886   81.240204
H    3.683325   95.134300   67.181862
H   82.416496   67.887573   29.277260
H   48.331787   77.018509   60.291065
H   43.100029   79.285095   70.547127
H   66.100960   26.409557   59.283863
H   82.784935   97.486771   47.307854
H   96.196098   84.007500    9.099625
H   67.723015   59.593369   38.306507
H   62.195782   99.514229    0.275787
H    0.341188   79.612068   39.649979
H   25.050091   61.481632   25.034891
H   54.346382    4.665853   22.623121
H   19.977531   14.681267   55.019543
H   96.677063   12.714260   94.843231
H   18.131397   72.772804   22.898857
H    4.176295   42.933899   96.181976
H   93.650528   56.458309   77.854485
H   58.185413   42.321007    8.743858
H   19.928270   33.302853   49.438023
H    3.007346   17.276770   75.764740
H   64.032387   42.951653   48.916477
H   85.704834   36.772388   95.139389
H   18.417814   43.907833   54.189056
H   39.060371   30.753212   39.035416
H   74.908554   63.132000   75.548691
H   86.826096   65.596207   13.174776
H   24.818220   61.872559   41.541660
H   75.257797   92.150848   64.569153
H   93.009567   44.219601   30.568626
H   75.987854   29.239628   69.000793
H   85.684196   65.451866   79.564850
H    8.625856   43.330048   61.714821
H   23.586941   11.992773    1.430527
H   77.050232   74.657547   41.183395
H   57.926331   50.109470    2.560431
H   20.387400   41.578346   95.871513
H   95.196259   25.693037   72.033226
H   63.480007   11.703213   47.432289
H    0.017988   56.644634   91.274651
H   64.175369   66.523567   98.445671
H    2.886727   55.453915   49.014030
H   18.877295   44.096802    3.681576
H   52.842857   50.954601   70.973259
H   42.446903   94.669807   82.537735
