100
TIME:    2.347, STEP:  2347
H   58.604156    6.789501   96.997269
H   35.984215   31.994951   26.047964
H   20.097624   42.756226   95.785851
H   81.870544   35.954613   11.515564
H   74.149185   60.879917    2.068668
H   91.623665   98.665413   11.176777
H   29.964577   19.817802   73.991310
H   35.416725   91.647614   92.699883
H   95.934196   60.638916   52.352535
H   10.703619   50.082802   99.593987
H   81.942810   60.679142   13.674906
H   66.264267   41.333527   25.866686
H   93.970039   19.710823   91.856407
H   38.871559   97.841743   35.848064
H    9.047970   60.383667   37.954132
H    7.156262    6.451886   38.220474
H   35.372147   37.207863   87.042038
H   51.299019   80.565941   18.178944
H   81.819557   76.813690   87.011765
H   29.286461   55.971256   76.127327
H   25.002319   22.565914   93.542282
H   87.389526   47.199661   19.409515
H   54.408195   75.534218   65.199860
H    0.979763   64.830292   32.765388
H   45.641228    0.036218   53.878380
H   35.897366   57.673862   69.186790
H   59.695290   44.915699   46.540020
H   34.509064   65.989738   44.351627
H   62.204041   62.030128   46.227837
H   90.988304   32.751968   69.968407
H    8.427064   32.514141   23.694069
H   13.948067   87.667366   81.990532
H   35.676952   96.765068    9.233251
H   77.267342   58.634201   72.875824
H   22.431995   81.504852   67.643074
H   76.616867   68.854485   12.571797
H    4.907228   18.583906   93.399841
H   66.983406   15.997303   88.062920
H   46.006233   30.278318   16.870493
H   42.132168   92.464745   22.690878
H   74.848885   36.714626   97.638840
H   20.686218   17.191704   13.065599
H   31.456923   77.574203   70.998772
H   29.486868   52.107437   10.211562
H   53.070095   39.289738   56.950294
H   47.808033    7.682209   92.699898
H   60.066769   52.475800   47.986130
H   56.364758   19.547903   13.796944
H   33.634804   38.070591   50.852478
H   75.109856   66.471001   19.512753
H   43.365559   43.056099   78.163239
H   19.192415   45.955318   19.985317
H   57.565742   35.617432   66.560997
H   22.342793   68.916435   35.382294
H   53.916435   64.256668   20.321180
H   96.502853   10.065365   12.729385
H   45.040699   21.825584   79.206627
H   51.294281   55.242523   53.102737
H   75.379204   37.935787   31.302435
H    4.141905    8.185423   96.856331
H    7.750896   69.424019   31.405193
H   15.613304    6.097778   89.159805
H   33.428013   47.105766   72.544846
H    4.203150   54.561592   63.423046
H   25.477848   73.393768   14.132367
H   57.165291   25.596596   84.958305
H   99.263832   29.505228   80.375137
H   18.242622   51.764893   78.402771
H   73.877403   81.145882   13.031951
H   77.933167   66.191963   96.791016
H   47.505089   35.710197   33.996922
H   80.445923   73.632675   28.457666
H   53.963058    2.215626    1.567089
H   78.540367    0.856022   63.719368
H   75.328880   31.983202   79.316269
H   81.143379   57.994514   38.006298
H   80.047729   23.124216   32.557911
H   42.246655   97.255684   44.056690
H   74.058731   46.624851   43.864388
H   84.423988   81.132004   18.724922
H   56.811115   53.562450   20.263416
H   17.420952   59.555252   90.522438
H   66.297470   46.431427   53.440006
H   11.621989   12.997408   49.057312
H   38.050552    2.077071   20.236984
H   97.272339   95.263237    4.765984
H   23.905554   32.706909   35.457413
H   93.737228   17.387833   71.339149
H    4.388739   63.494911    8.998348
H   58.832973   12.712273    8.118333
H   20.071564    0.163592   83.026077
H   51.944073   72.018852   78.242653
H   35.871510   97.958176    0.485165
H   74.074776   55.596668   85.064507
H   16.012695   39.499954   70.018394
H   87.774139    3.051420   46.223434
H   76.308640    2.370171    2.211187
H   15.482518   36.220978   18.482563
H   96.907951   46.967289   48.452698
H   84.997940   18.418571   71.636017
