100
TIME:    4.361, STEP:  4361
H   22.405479   22.095306   95.153397
H   80.035500   41.180458   53.081627
H   54.716324   87.652168   72.153557
H   82.208588   52.977409    1.120962
H   56.109970   22.310884   47.459473
H   60.398991   96.483498   10.630239
H   24.410736   55.814320   31.488886
H   77.120293   65.882812    7.780754
H   46.426231   67.001007   25.577177
H   55.665535   79.000862   78.462555
H   94.605438   41.716709   19.676235
H   89.392769   42.284920   82.508568
H   65.782700   97.871239   91.691162
H   39.149422   91.634041   89.113770
H   33.547935   80.485443   41.143230
H   26.178448   30.300163   71.039978
H   73.421425   70.415924   70.387383
H   94.327232   82.625130   48.352207
H   13.192417   61.304733   93.117447
H   75.023460   13.205412   13.249735
H    5.488785   22.065815   38.878540
H   80.473663   49.873276   47.898834
H   27.518394   59.154488    7.576161
H   13.857384   88.985016   83.187347
H   73.609894   40.310799   68.746803
H   26.666422   97.731796   80.329430
H   86.025124   61.197498   86.497292
H   64.572266   59.996445   10.921834
H    5.996444   44.755795   51.025032
H   68.213379   82.904747   30.075142
H   87.688011   13.115159   64.350502
H   41.113323   32.021996   95.544456
H   77.540871   49.410530   90.670273
H   62.364212   74.063141   88.029732
H   72.368408   29.262077   90.283295
H   51.731754   27.001347    5.717648
H   98.076004   44.827133   52.095020
H   83.743675   79.144310   30.185200
H   60.995457   86.399467   21.698839
H   52.435455    3.920590   81.149170
H   37.207794    5.821859   45.088970
H   39.679306    7.581245    7.685118
H   48.804684   89.651566   16.473753
H    0.880206   85.855713    7.130585
H   78.370705   59.826523   29.293600
H   21.824802   46.096210    0.875756
H   75.804977   62.003929   67.328773
H   56.472317   40.286850   38.411873
H   92.507858   71.270905   70.513733
H   17.340824   97.110008   78.649879
H   43.211903   48.617302   99.398499
H   17.068945   59.071903   87.770111
H   99.331810   47.295288   49.589817
H   75.700188   36.051712   24.254845
H   93.565277   40.775951   37.439358
H   99.022812    7.946374   44.168076
H   72.719330   63.711891   70.754814
H    1.326770   65.045021    1.224955
H   34.219322   23.032013   76.687431
H   71.236801   62.990269   39.573372
H   34.796356   75.764427   74.377327
H   44.134209   87.350510   98.031540
H   70.129753    9.696004   34.423607
H   42.501740   65.519394    8.736874
H    5.417118   12.537800    1.689621
H   33.441872   25.474464    4.040031
H   37.677719   99.134796   77.611069
H   79.121590   66.947464   74.683617
H   74.254807   36.432678   86.718170
H   18.740583   67.489746   92.550110
H   83.550575   98.677048    9.833881
H   14.383072    6.791818   75.914513
H   22.646303    2.594883   49.934036
H   34.207378   73.407753   44.037834
H   72.431404   34.856525   31.991907
H   28.754244   87.072105    2.490176
H   62.906479   48.564358   68.175377
H   36.868038   65.566795   55.282845
H   70.637230   40.709095   66.342659
H   85.653442   71.445595   45.217125
H   96.211319   74.398209   40.635220
H   68.537132   72.708206   22.113562
H   93.716286   80.051361   45.263775
H   50.179253   85.339058   65.105942
H   39.985291   76.102318   25.002258
H   50.925350   69.243248   44.624359
H   58.416054   86.272690   31.492933
H   26.152449   56.141991   50.390457
H   46.187363   51.358437   92.523445
H   80.767899   29.852264   80.111740
H    2.492692    8.913700   25.558146
H    0.966345   23.470314   16.623610
H   65.002068   58.370018   56.247356
H   68.735794   77.760376   20.858854
H   81.191124   59.098724   16.298203
H   54.122314   23.520054   42.197731
H   16.446854   17.949245   86.383636
H   22.873640   53.368988   86.251823
H    0.965282   55.648853   79.757698
H   10.090282   66.720314   77.631622
