200
TIME:    0.646, STEP:   646
H   21.946676   61.127567   22.281925
H   31.582979   38.805298    6.379377
H    9.628282   86.908707   65.345879
H   31.528187   81.719185   33.882896
H   10.899537   94.019257   47.821198
H   76.410706   41.795517   53.532349
H    9.241439   55.016060   57.509808
H   11.986859    6.417883   10.661197
H    3.916420   81.419571   37.815052
H   96.569260   69.211815   80.058205
H   26.344866    3.267108    5.791649
H   32.456665   52.859566   32.087219
H   21.138943    0.482202   44.651726
H   85.214104   54.919872   61.829830
H    0.020156   75.070000   41.979637
H   17.466259    9.238132   45.564728
H    3.306554   26.733486   95.719948
H   26.921513    2.684757   36.292271
H   78.533768   15.003368   48.460526
H   91.347923   74.129112   21.732151
H   62.957497   97.025421    7.239964
H   80.990425   64.333015   54.929047
H   82.847389   59.589508   39.394463
H   17.207760   91.760735   90.312996
H   20.893341   29.032698   30.923183
H   18.325010   80.354492   93.547325
H    6.758168   66.943275   65.405869
H    3.828013   86.877800    1.799576
H   28.168530   44.189156   35.961006
H   74.702728   31.640562   84.581680
H   12.831427   68.411354   16.691193
H   24.543079   73.021957    3.599044
H   17.313408   17.721670   78.138306
H   82.989449   64.020866   45.386749
H   28.504808   73.024765   31.130629
H   19.799164   40.664970   84.132072
H   97.917389   65.666077   89.002907
H   12.832721   55.257504   96.913010
H   38.044113   31.862347   53.456299
H   86.189148   38.018917   47.837006
H   80.625114   86.257782   15.000398
H   33.547623   34.593315   27.792301
H   69.391678   78.455254   65.403984
H   36.376785   82.952797   33.268734
H   42.649132   88.682190   59.015251
H   35.346390    3.272414   47.103413
H   87.625061    6.321193    5.080540
H   80.231590   65.544411   33.052078
H    2.781803   13.345095   61.459049
H   47.588413   19.633696   88.536270
H   68.550125   65.357307   11.778693
H    5.618181   42.686016   72.270576
H   63.126793   82.810188   13.234795
H   16.364079   90.751480   87.715477
H   60.013779   67.355621   77.642906
H    0.101023   62.347862   91.942841
H    4.271812   18.281837   45.299458
H   71.844345   68.017578   97.975365
H   19.614157   82.320419   16.946018
H   33.713116   93.709389   59.488907
H   49.104614    7.455236   30.374390
H   97.233330   17.386667   52.178551
H   82.632507   33.616898   71.187622
H   33.963188   65.731575   12.732346
H   77.874878   82.131653   34.531727
H   22.813280   32.334526   40.161087
H   71.009621   14.598016   94.223244
H   95.067833   92.372993   95.309654
H   30.963964   11.339755   56.840996
H   42.899876   48.706303   50.960911
H   58.287056   83.614243   84.141296
H   20.729958   13.150157   41.922840
H   90.379532   32.682110   85.900681
H   21.092371    0.040533   72.392372
H   84.088699    7.443774   48.522614
H   63.575890    4.743023   60.224434
H   93.711548   45.064613   66.402748
H   11.517603   13.362978   34.084389
H   14.617252   47.781574   25.946316
H   62.157993   88.402649   75.007355
H   60.599682   23.240236   95.106079
H   44.488865   61.288784   75.306023
H    9.415711   18.119780   78.400673
H   11.434431   75.135628    7.083910
H   24.450478    3.617122   46.276405
H   36.105354   71.569031   19.331200
H   54.051682    3.630123    2.702121
H   71.955177    3.433479   26.755623
H   78.112686   73.045410   78.632935
H   21.410599    4.245438   50.398861
H   24.223774   38.397655   78.948624
H   81.227379   92.097626    7.226645
H   66.546692   12.283169   84.166733
H   41.822109   79.847359   80.252693
H   35.412331   51.434273   84.849220
H   52.458656   36.786621    9.972450
H   84.813011    0.236420   15.814526
H   95.733803   34.747276   52.437611
H   27.818230   65.710968   54.320053
H   74.263710    4.524457   27.349527
H   27.980497   91.651855   88.057777
H    5.669257   82.798981   63.625084
H   31.595396   22.332258   36.176182
H   41.384575   68.689087    6.285354
H   24.800543   22.137230   38.250507
H    3.496412    6.895231   24.882460
H   84.890892   35.138020   54.369736
H   62.358837   49.862717    3.042263
H   83.114449   34.964783   18.764759
H   17.408899   22.399645    7.524333
H   52.536240   92.538689    1.081501
H    2.296130   73.554871   95.135780
H   50.042503   84.986008   85.104301
H   61.848869   10.644489   64.484314
H   50.301643   98.874908   12.537072
H   97.469475   93.920631   97.250107
H   15.882325   14.159596   88.913132
H   38.711254   46.980221   25.862968
H   34.280975   72.956573   63.473873
H   81.497002   54.778011   64.488205
H   44.792000   24.457386   74.215919
H    0.771072   17.862186   60.130707
H   42.024605    4.699142   36.073399
H   98.095657   52.708954    0.085867
H   64.767845   98.899788   79.385323
H   62.596706   73.460419   17.692301
H   85.294868   51.085617   55.375046
H   66.548042   90.754234   38.431545
H   97.464043   37.787418   75.637932
H   87.423828   22.225002   73.418404
H   64.998009   70.689240   18.926891
H   66.116310   90.078171   18.901463
H   91.112007    2.347617    0.395378
H   81.012711   23.412403   54.704006
H   24.482807   94.028992   37.760437
H   51.544586    1.105787   77.700264
H   69.564880   87.599098   75.550072
H   94.681389   51.544292   76.783379
H   56.925385   50.011414   71.454063
H   43.667870   89.618279   84.176270
H   70.717560   51.129219   28.024872
H   38.547775   53.346756   55.711407
H   41.954041   64.233742   85.690048
H   39.109291   11.831186   84.852272
H   59.385845   56.302094   62.344578
H   60.816040   68.970413   10.401398
H   54.333611   94.999809   44.374859
H   31.566368   58.305824   66.495628
H   76.039032   47.841095   93.908371
H   22.404057   93.107368   74.803528
H   61.909843   68.205063   48.279186
H   50.878014   95.875526   35.429207
H   95.036636   16.657574   89.212494
H   20.642292   10.461922   65.919609
H   29.711971   64.601242   68.098152
H   75.554604   44.535603   66.552078
H   63.561077   73.059601   85.563156
H   51.818321   30.145782   19.235886
H   93.799873    0.204548   87.547997
H   59.127850   40.378204   93.821671
H   57.944023   67.915016   72.620979
H   24.541578   20.952301   32.026726
H   82.695641   16.868423   37.063236
H   26.177568   32.106716   53.828728
H   55.066780   35.864647   13.813782
H   18.908703   51.521030   60.082439
H   67.908699   91.000191   56.525723
H   23.986881   49.404709   64.801346
H   99.589668   26.849886   35.898247
H   45.000854    7.395865   85.831390
H   71.608765   10.462100   35.942001
H   32.137306   50.366913   58.704872
H   45.517448   60.008572   79.000320
H   66.226517   64.826881   83.658875
H   52.567688   91.982376   80.141319
H   13.442346   49.853905   23.676260
H   31.246914   65.604202    3.891410
H    5.328308    9.588051   70.071671
H   65.218636   11.941211   64.386322
H   66.987404   58.810234   92.112343
H   74.005417   99.738533   32.279564
H   27.416773   30.601650   84.437866
H   46.941441   89.739395   14.110413
H   60.322548   25.971638   92.126595
H   90.773285   70.724899   76.724167
H    7.759884   39.649643   85.986183
H   45.489136   97.570274    8.261141
H   70.915878   84.422066   39.733032
H   94.860573   62.983913   71.183517
H   56.996544   56.064770   70.832535
H   67.215225   17.591888   76.402168
H   44.324615   95.962616   19.453054
H   13.118638   27.182911   67.107079
H   28.010649   79.734329   41.495419
H   70.961899   36.120823   20.488216
H   76.319351   11.379690   24.003975
H   12.160007   96.629997   17.170271
H   17.110209   89.337105   35.516678
H    6.499207   12.747915   59.859322
H    3.773208   21.237534   92.108185
