100
TIME:    7.204, STEP:  7204
H   30.144712   61.379494   92.550552
H    1.520395   95.237251   32.340115
H    3.600893   92.189003   38.777378
H   82.685776   35.846466   45.287434
H   30.644899   50.189709   70.375336
H   16.302471   93.403465   92.182327
H   75.407547   47.786953   53.815334
H   53.666100   11.840037   46.746956
H   76.539803   93.658066   46.621189
H   77.992775   19.823763   89.783485
H   30.156494   56.111103   45.823517
H   80.884781   84.790039   80.140694
H   84.374489   25.936481    9.193180
H   98.382683   82.871132    5.466809
H   68.105782   26.536034    4.463274
H   11.865948   81.640747   35.046387
H   44.804329   58.458187   29.196894
H   55.121876   44.292297   49.797600
H   57.467068   80.570328   42.895878
H   98.431198   52.825832    6.814387
H   36.781143   39.036629   61.711300
H   53.034836   53.647400    5.791117
H   89.558418   36.032555   26.236002
H   49.702888   23.009005   72.042801
H   71.928047   14.846329   89.743080
H   13.639828   13.727745   12.953996
H   40.869999   43.015633   42.907589
H   24.689426   92.698082    4.897316
H   67.814873    2.695529   16.635183
H   77.226730   12.540924   56.085777
H   99.576973   68.051392   39.421455
H   20.622066   53.470409   32.353676
H   77.797615   41.403038   46.790169
H   82.487648   13.519019   68.258270
H    1.667903   14.226112   63.350334
H   98.869438   49.677185   96.777473
H   70.755630   40.710083   76.112396
H   66.235847   27.115429   30.807640
H   40.989735   24.453096   46.190964
H   84.656960   37.768917    4.829808
H   42.908829    3.371574   12.067913
H   93.099968   69.853638   47.736401
H   73.284882    6.702568   21.826694
H   19.344463   33.561424   85.104362
H   31.762493   47.657932   72.575752
H   85.134300    0.322078   12.428289
H   98.015915   16.616055   94.615257
H   56.627316   69.568848   14.320253
H   75.608894   35.814526   57.105263
H   76.989014   40.382923   79.828926
H   43.006931   74.143723   29.366859
H   55.243145   95.260727    1.138873
H   58.306477   63.779968   84.471962
H    9.866066   89.662704   49.708511
H   67.201706   89.928917   61.624119
H    2.568332    4.955814   47.385635
H   52.953175   81.677925   41.147865
H   89.631271   96.558144   27.997561
H   58.440193   43.161327   58.433968
H   83.628990   81.511688   58.711693
H   14.134211   43.551834   52.714622
H   43.233894   60.888260   69.397400
H   63.141453   15.694814   39.470551
H   37.725407   81.006317   31.550968
H   18.261131   85.472961   66.446129
H   58.794312   84.141228   72.140549
H    9.577837   97.424286   14.871188
H   82.736107   29.542372   10.595458
H   15.947542   32.152832    8.409484
H   76.335655   10.481446   86.563568
H   93.272179    5.241595   75.734016
H   80.033455   12.400867   84.096901
H   37.277390   61.971760   77.039612
H   71.618034   93.478516   75.116516
H    9.495679   38.922688   47.513767
H   95.962379   69.282860   11.192079
H   21.059803    2.275282   18.505266
H   70.437347   79.668953   12.288705
H    6.972300   32.358303   98.053978
H   46.233749   16.583370    0.290253
H   51.845039    3.811044   10.555947
H   81.878761   91.189713   84.317451
H   73.545128   27.594397   16.015274
H   45.772839   28.621307    5.443718
H    1.554640   98.268639   49.405327
H   85.490646   73.670654   42.050919
H   48.293659   79.562981   67.057869
H   71.889153   28.602255   20.883621
H    5.185879   93.065483   69.271370
H   29.408091   12.882778   81.741913
H   18.840107   62.425308   85.597092
H   11.321947   37.288620   70.788536
H   47.243717   43.675732   76.100960
H   43.505043   50.231163   12.553498
H   32.040749    4.438431   81.626984
H   88.942429   11.254125   95.352760
H   90.782982   81.102600   22.880497
H   24.371935   42.912945   34.261818
H   65.531120   67.910820   41.627163
H   86.679436   93.768478    3.755524
