100
TIME:    5.208, STEP:  5208
H   65.126625   44.421150   94.377945
H   56.642708   87.077484    6.486175
H   69.277771   48.588074   62.213688
H   82.350754   18.080795   54.695854
H   48.523468   90.201675   24.494236
H   47.261547   95.565880   94.511650
H   80.018349   13.006016   97.725388
H   10.547768   39.159832   30.012562
H   25.605354   85.565353   72.262840
H   32.518303   91.162529   11.628141
H   15.819550   75.797806   38.088650
H   57.067970   84.740898   22.217726
H   11.733719   46.652657    7.528804
H   97.212288   89.023354   53.572067
H   43.848518    4.828166    0.427566
H   92.120850   56.218338    0.731193
H    5.310699   26.439701   47.493134
H   12.437350   41.414211   18.989664
H   26.384789   96.833832   37.739338
H   52.202675   95.217323   70.917488
H   55.226616   37.744720   15.890594
H   61.676376   50.997681   75.768982
H   16.209724   52.265892   83.342789
H   35.159512   99.131073   20.281403
H   43.315582   73.139877   75.002113
H   22.805319   72.697632    0.681547
H   12.986826   25.986084    3.299852
H   93.106178   99.531555   38.921806
H   24.414299   21.602461   10.987576
H    0.691838   61.941704   97.410103
H   21.022282   89.067062   97.338554
H   94.593636    8.622231   17.133369
H   37.201679   87.440590   66.974724
H   98.151306   96.440697   52.346031
H   51.314896   65.235214   41.858521
H   25.359945   93.341240    3.053089
H   79.313599   13.807171   18.835186
H   48.734852   63.648052   89.955940
H   25.240673   67.943718   39.618073
H   72.657372   24.627514   47.789402
H   79.322006   34.881973   65.043922
H   63.555107   45.596146   47.473347
H   56.100391   94.730774   77.652687
H   46.794552    0.058839   89.946823
H    4.900667   26.411018    1.772682
H   10.896641   62.251453    4.318942
H   82.422165    8.066209   75.458092
H   56.517551   49.010681   90.819481
H   17.266357    1.124109   36.724670
H   35.105129   10.000441   19.410240
H   43.147282   66.844681    8.327615
H   58.231331   80.476257   32.166527
H   16.900806   52.206482    0.395925
H   56.083870   22.229286   61.630943
H   26.126549   15.008914   44.644596
H    0.082237    7.055412   15.334198
H   26.416656   39.272240   51.311623
H   38.256729   85.056129   79.408798
H    1.021510   58.819916   11.661617
H   15.345268   28.092243   15.482674
H   88.224976   36.376019    8.339953
H   14.074461   79.466751   59.710579
H   27.631071   51.898727   76.342255
H    0.663045   70.133331   85.742279
H   39.036919   44.890049   80.567223
H   81.410393   83.368034   54.120934
H   69.720856   28.417217   18.504562
H   20.613762   15.388270   15.175117
H   16.467253   75.572670   33.596031
H   35.899948   10.088894   90.766571
H   56.655327   41.048065   99.672859
H   44.543457   78.681488   37.927109
H   67.419983   60.695557   28.214928
H   15.561520   19.805054   93.712364
H   13.270442   36.064938   96.199310
H   48.780281   41.356857   45.496777
H   39.807590   75.152046   83.154518
H   76.661636   10.181614    2.056939
H   11.256515   38.221188   75.790245
H   44.115379   25.313751   72.247406
H   12.784243   83.160812   91.259285
H   32.088272   78.239761   51.287987
H   47.293144   94.215515   25.927145
H    8.452444   57.819016   87.746796
H   98.742180   23.121056   42.895149
H   31.429203    0.351819    3.442439
H   14.985281   24.688904   71.881042
H   39.786087   88.329926   41.582619
H   63.764267    4.199553   85.596077
H    5.881009   95.003098   10.391670
H   37.155510   54.647594   43.445232
H   63.638157   87.170944   32.760826
H   19.296144   83.787117   21.747211
H   50.600800   29.136427   77.966621
H   66.548012   83.228752   35.759434
H   24.081070   90.073883   98.448746
H   49.215599   66.557137   37.672348
H   25.981909   60.580688   72.694344
H   60.615967   59.299938    8.811768
H   62.698399   44.987476   96.037064
