100
TIME:    3.222, STEP:  3222
H   99.432037   26.547417   96.196182
H   11.644239   79.437119   81.242813
H   35.138023    5.707987   85.518593
H   82.017410   99.902763   63.556026
H   66.311890   31.015011   78.343307
H   78.058601   97.717461   97.830986
H   84.105003   78.902916   42.417534
H   66.643448   67.344925   12.360050
H   74.425026   76.511185   97.272957
H   86.792686   62.646507   33.860214
H    0.552444   95.886887   29.390455
H   32.866089   85.193008   63.583519
H   38.310966   66.771881    4.888806
H   95.546745   95.144753    2.434745
H   19.692406   82.225449   95.893105
H   71.974670   29.921295   65.587257
H   65.013069   95.081604   66.699722
H   69.995567   38.014900   87.842468
H   95.451378   13.519084   33.109608
H    5.714493   37.392727   35.701347
H   73.078674   35.457253   69.790070
H   71.276627   48.361237   44.895203
H   42.725685   68.417900   40.165909
H   19.682831   75.324524   67.780891
H   14.347247   30.638649   60.334999
H   31.885160   31.605124   87.173073
H   84.242416    8.541511   63.903568
H   60.677937    6.831757   73.275383
H   81.229843   41.416763    4.867202
H   24.538784   11.095553   39.527954
H   42.861507   10.978860   54.464561
H   69.196266   63.488052    0.987400
H   97.310272   32.744911   88.060158
H   14.238132   78.445717   36.012497
H    0.680109   15.361800   20.926064
H   52.694759   37.589870    9.564385
H   88.830727   86.538559   62.346310
H   30.820480   99.982643   49.808277
H    9.069787   11.215799   32.076096
H   59.716213   10.550065   91.534462
H   15.051008   66.735947   18.254622
H   42.046165   56.464966   54.173264
H   38.993809   82.821320   34.202297
H   73.612732   66.772736   95.764244
H   77.170418    4.769045   31.826586
H   36.519390   24.371510   96.251381
H   66.906540    0.060336   56.390862
H   56.411488   28.556787   67.937035
H   59.209488   65.602409   15.946670
H   93.454735   79.782387   58.312420
H   43.298801   58.580292   87.389084
H   61.715748   64.762665   62.545017
H   75.712715   40.690979   15.740143
H    2.081982   54.639366   73.994659
H   84.252579   40.952141   27.752047
H   97.597672    9.145529   82.942322
H    0.513602   96.577019   62.426460
H   86.139641   72.609406   30.565292
H   44.388535   74.905930   64.129784
H   46.399361   75.442169   71.969246
H   62.946968   28.734615   63.182102
H   84.559532   97.952164   49.570351
H   92.801781   87.419365   12.528275
H   64.289787   59.321381   39.664158
H   60.210995    3.507667   95.619560
H    3.412716   82.097725   36.693588
H   29.061817   59.753193   22.620760
H   57.800209    1.806195   20.232832
H   17.485390   18.273949   58.155605
H   95.663879   10.199326   94.948517
H   19.719265   76.174751   23.498718
H    8.298978   44.593292   92.521393
H   96.910568   58.931377   79.136223
H   59.285954   45.485298   11.715508
H   17.517572   33.231518   45.647739
H    1.825243   14.072233   79.129303
H   59.492519   47.285530   48.032230
H   83.355743   40.041965   92.378311
H   16.020277   44.054699   53.630966
H   41.512459   33.476437   43.342972
H   73.930466   62.614727   72.560257
H   83.074722   65.269669   17.355875
H   21.654692   61.037903   36.779392
H   71.817703   87.872284   69.136108
H   95.444107   47.347271   35.415581
H   77.138367   27.403042   65.528656
H   82.344810   69.087273   77.180664
H    7.821146   47.333191   62.234764
H   22.549152   14.776644    1.839594
H   81.470703   76.714432   39.396210
H   55.880127   47.409809    1.504499
H   16.687716   37.818199   94.918602
H   91.991150   24.192717   68.166649
H   58.647167    8.670338   44.061241
H    0.882553   61.123470   90.125664
H   60.045578   68.498055    1.028255
H    6.855435   52.584499   51.889549
H   18.693808   43.671082    4.481613
H   55.224754   50.739071   75.161034
H   39.341358   95.953072   87.354172
