100
TIME:    9.085, STEP:  9085
H    2.940969   88.883949   90.828445
H   49.570358   97.165863   50.944027
H   35.933697   27.514801   16.696331
H   83.001495   58.348686   42.183067
H   13.789778    0.960060   19.374046
H   87.135376   91.365639   78.464325
H   76.824348   74.801369    0.911999
H    5.823212   74.569290   74.039787
H   30.301231   12.806415   28.218428
H   26.615831   46.832142   63.435219
H   55.190460   31.795597   64.635292
H    9.090645   79.074791   46.248497
H   64.429352   12.085707   22.265465
H    5.247046   77.073372   48.613316
H   90.952400   58.515846   14.003815
H   36.235764   17.121788   78.906311
H   93.545265   82.872749    0.431741
H   95.342270   52.762794   84.595291
H   86.768387   59.482166   41.994106
H   47.748455   12.883867   34.881615
H   25.159935   51.777473   10.662050
H   33.368145   56.144455   45.606598
H   64.444359   20.739790   72.417725
H   74.930984   45.511200   32.342724
H    4.653382   65.675568    3.633036
H    4.769567   58.277695   35.942898
H   78.669746   64.826431   80.228012
H   65.974762   80.496796   67.076530
H    8.715407   73.354332   27.718601
H   49.351875   65.985672    5.620386
H   73.608910   36.725376   90.602814
H   39.389668    1.505056   58.220116
H   10.291498    3.780981   16.245504
H   61.965057   41.136597   89.015404
H   54.855217   71.808022   77.792038
H   62.380955   97.008133   90.864906
H   51.168259   71.822517   24.327658
H   88.492287   92.692253   63.543037
H   61.593334   83.471214   63.908386
H    7.488356   61.676956   52.824188
H   14.356211   67.908524   56.383144
H   34.579666   77.229996   43.765865
H   89.472687   17.986588   57.690815
H   99.237831   65.140846   69.016426
H   68.598495   73.454567   33.539967
H   60.854454   36.193279   20.070139
H   12.719798   18.911642   12.676199
H   56.742123   88.942551   30.705463
H   30.593773   80.030312   82.070221
H   16.478125   69.015465   48.310078
H   42.877773   92.545021   49.198837
H   46.660366   20.718082   77.662270
H   97.314293   74.686646   75.230881
H   66.300018   58.978149   32.711311
H   17.433666   54.771492   77.613144
H    4.911116    2.977185   83.351944
H   72.200500   27.402855   20.046682
H   49.567810   18.921064   79.545921
H    6.793256   22.642546   14.029634
H   59.501247   26.091343    5.211571
H   32.789959   56.075275    6.058877
H   76.473503   43.380173   84.287880
H   90.841263   87.338646   10.484741
H   66.891785   91.252853   80.482483
H   92.921936   35.239925   41.615467
H   43.242897   90.631432   83.360466
H   58.662033   62.451603    5.685356
H   52.802704   37.118843    0.518143
H    9.696150   96.996185   90.437042
H   14.536620    4.961542   82.574478
H   33.536449   77.256187   53.174416
H   25.139833   49.942772   21.973000
H   14.632956   68.927818   28.810017
H   30.213078   74.429420   63.353706
H    0.105416   41.692410   90.132538
H   40.433441   89.836174   84.623886
H   91.894363   39.470860   51.868187
H   58.802700   56.681007   16.179787
H   97.173271   26.833210   19.045305
H   53.988213   14.116085   38.240288
H   88.669426   23.270853   22.981483
H   23.027473    3.391456   26.953184
H   92.520088   59.051548   95.151985
H   75.181831   89.582130   33.642879
H    9.967255   80.598679   67.064804
H   42.201130   42.761406   72.673141
H   73.921455   42.798653   56.751060
H    2.140669   78.084450    1.380677
H   44.225101   88.334358   53.887215
H   63.103817   35.495094   48.982498
H   95.818291   63.992191   25.320702
H   50.496899   78.758408    6.634645
H   67.819534    0.108627   21.561579
H   25.295572   64.349350   39.385128
H   99.514984   35.950871   24.849066
H   44.305359   36.974609   98.196640
H   41.477470   89.048409   14.701387
H   20.741159   35.986362   96.497215
H   75.924644   76.033424   84.073494
H    3.516676   45.497585   22.552868
