100
TIME:    3.709, STEP:  3709
H   66.497711   81.887177   95.750320
H   98.096931    5.840078   11.962355
H   43.509079   40.743904   79.804131
H   82.099152   79.838982   36.860050
H   61.949875   70.050209   65.138367
H   70.508675   97.189857   46.060989
H   58.580204   11.786331   80.501564
H   28.366211    9.478177   67.646767
H   62.453636   29.688263   66.619957
H   73.483711   69.639107   52.931953
H   55.252884   15.481932   82.479546
H   14.277367    9.603586   28.917929
H    7.333487   37.307846   56.483910
H   71.433052   93.643684   39.496998
H   25.616795   38.724197   72.485359
H   52.393906   87.326286   25.162138
H   25.851540   27.292416   11.033255
H   80.399010   14.332141   70.959167
H    3.037555   33.950699   58.765240
H   92.592918   27.051558   68.858604
H   44.179398   86.974548   56.572357
H   17.965790   49.007736    3.422671
H   36.223534   64.457161   26.231956
H   74.435204   81.165314   31.610737
H   96.929718   92.016632   63.931618
H   29.650278   17.094179   41.526085
H   42.247738   88.298355   73.563942
H   19.587492   29.563278   89.370995
H   91.819061   85.601669   81.846199
H   43.212219   99.041588   78.243622
H   62.029850   54.648098   15.934669
H   99.945869   50.034172   55.903343
H   31.614046   97.114693   31.932966
H   34.816177   33.814949   15.496918
H   88.574890   78.548088   50.579590
H   95.043373   75.847382    7.884013
H   35.540550   68.704086    0.720131
H   10.693290   91.072838   84.175255
H   88.514191    0.606146   84.882820
H   13.847443   64.960052   29.850306
H   81.768158   83.448334   29.728132
H   98.277328   78.320908   77.053406
H   43.188625   85.741714   69.377647
H   42.513870   74.932007   43.380150
H   34.927570   85.553131   73.499817
H   30.236454   33.660297   98.228035
H   70.711227   26.546272   61.068695
H   56.437496   33.571457   98.069862
H   73.446091   25.270348   96.519714
H    3.666293   87.191124   24.252293
H   43.261646   11.563354   92.523926
H   85.383575   19.571426   30.573009
H   85.811485   43.514771   87.456581
H   90.802361   46.691879   95.485199
H   45.477463   83.633972   31.892988
H   98.207016    8.632788   66.363693
H   31.386278   82.524940    8.744230
H   49.876213   26.618542   18.019855
H   82.797630   95.482452   26.740829
H   14.263820   12.873541   58.117805
H   93.666847    6.087409   25.213253
H   67.274956   93.419235   27.533630
H   25.863913   54.187798   79.133202
H   97.729424   61.970543   26.440639
H   79.539833   64.613441   40.972446
H   73.495461   57.887428   65.488831
H   89.988144   76.590973   46.133282
H   24.159935   29.659468   43.514248
H   41.758850   83.281250   27.610355
H    5.531157   34.694283   93.923035
H    4.254139   43.039787   17.656071
H   68.142197   28.430801   28.176968
H   65.157776   34.843693   66.652092
H   48.563396   14.666145   82.778191
H   40.997059   33.926319   82.565102
H   13.338901   45.285210   46.360462
H    3.707703    5.074749   56.644794
H    6.235896    8.197676   19.273417
H   39.372292   42.624226   59.066765
H   17.629128    6.953129    1.387638
H   83.457047   67.652969    1.667540
H   19.614708   68.450150   76.633057
H   52.467457   69.167450   83.163879
H    5.323923   29.546467   24.657249
H   71.731689   16.883762   88.206543
H   65.932373   45.292770   99.347275
H   14.870459   33.678413    0.402644
H   15.659025    8.342758   57.170517
H   32.657089   87.661354   97.855965
H   38.413105   56.679016   56.803398
H   75.810150   73.705879   11.789102
H   52.723709   74.440971    4.199410
H   23.207973   38.805840    5.827162
H    5.716111   38.210930   76.896706
H   92.463036   17.499607    1.316682
H    0.269747   49.266548   75.874184
H   68.199402   80.532600   23.881456
H   20.480970   47.817596   96.688042
H   32.025078   52.838337   34.369408
H   69.590050   83.454079   40.440208
