100
TIME:    2.862, STEP:  2862
H   23.776741   59.561333   96.525772
H   21.658577   59.919334   58.534077
H   28.949972   79.807999   89.742836
H   81.956985   14.735666   83.287537
H   69.536377    2.159432   88.104660
H   83.639656   98.107475   62.180210
H    2.973745   54.594604   14.265067
H   94.938736   36.201138   45.415089
H   83.274513   11.123819   19.933949
H   96.630943   57.477440   19.762011
H   34.038757   81.401413   64.066162
H   46.607239   67.147964   89.209129
H   61.209221   88.552277   40.669388
H   13.371554   96.254372   75.040108
H   15.312981   14.382035   13.198014
H   86.449158   61.408112   95.470070
H   93.962044   71.268738   33.927502
H   62.304535   55.521614    0.322978
H   89.842857   98.416092   14.144457
H   15.412674   45.036465   11.190851
H   94.441589   71.296844   79.562408
H   36.763077   47.883331   75.552551
H   47.532204   71.345757   50.465591
H   53.130707   71.006897   94.516121
H   27.221939   59.189369   57.677856
H   33.535954   42.330578   20.916456
H   15.284981   23.506605   56.759708
H   91.054832   90.028206   61.376583
H   73.402084    8.755237   21.883715
H   10.735574   20.005844   10.909580
H   28.692213   78.696228   82.946617
H   46.465553   73.436028   34.314369
H   71.953827   59.084633   55.628517
H   99.026909   11.437489   51.179123
H    9.629388   42.574951   99.005455
H   21.394245    9.309416   10.801721
H   54.301468   99.722153   33.979610
H   45.698715    6.571375   24.405140
H   24.266312   19.058664   66.963181
H   93.625168   44.252609   63.211628
H   39.653942   54.383961    9.773681
H   74.400902   40.306824   37.259811
H   35.892918   80.662506    8.199306
H   96.601624   60.739754   60.564316
H    8.398684   18.972164    1.019550
H   41.163860   17.505054   94.790199
H   64.094040   80.482697   52.932915
H   56.392262   24.850275   45.662254
H   48.687332   95.419304   30.307177
H   85.907127   74.305702   83.492462
H   43.326267   93.335541   83.593307
H   44.220020   98.166595   86.176781
H   68.247505   38.603577   36.648804
H   10.417858   60.514305   58.108429
H   12.915691    9.402152   24.690981
H   97.147232    9.524126   95.197571
H   77.689552    6.964986   28.187569
H   12.945971    6.606800   39.837967
H   15.997116   59.695354   91.765892
H   70.155258   47.771488   82.208504
H   40.238228   45.475033   91.252090
H   97.336632    1.303247   65.860016
H   68.362694   11.985136   37.214554
H   39.567833   57.363068   49.439243
H   45.920528   32.260517   62.094627
H   25.527870   99.994453   15.408630
H   57.945015   47.308430    5.239071
H   82.667763   81.217712    3.022750
H   99.542534   44.141258   80.733223
H   88.368958   92.092842   95.706573
H   31.151913    0.668793   27.817719
H   37.982208   56.540924   66.165192
H   20.383963   76.739433   88.364738
H   67.208733   68.267685   33.111382
H    0.161019   32.717907   18.357014
H   93.315849   90.999992    3.353900
H   26.805666   78.488174   41.665653
H   66.442291   63.582920   72.498550
H   98.757294   45.112133   49.612717
H   59.167488   53.084286   74.357376
H   66.888229   58.890362   51.043537
H   56.064026   62.918594   47.459084
H   98.877884   55.028381    2.491325
H   47.050907   57.066620    2.018044
H   12.973420   69.865784   70.313652
H   85.422058   14.179623   40.529263
H   58.301231   95.262199   60.014526
H    2.027231   76.155823   65.979805
H   15.077160   34.820061    4.784955
H   13.298941   91.524002   26.527889
H   41.147461   27.971962   93.901932
H   90.050095   10.745275   88.057640
H   68.914368   13.390244   40.327293
H   23.850719   86.834373   19.789005
H    7.107353   93.368591   81.852959
H   30.311081   82.714363   19.623169
H   35.429886   31.924709   72.593285
H   17.372702   40.605896   10.241882
H   72.374413   49.187252    5.314659
H   16.981432    5.191216   22.033701
