100
TIME:    1.268, STEP:  1268
H   31.572206    5.739303   97.985123
H   65.998512   73.495140   57.985287
H    1.550939   65.129036    8.451469
H   81.689438   80.408043   70.661125
H   83.813690   74.393318   31.323692
H    8.353783   99.834373    4.319510
H   86.514412   46.959751   89.612022
H   20.223999   98.300766   91.770164
H   22.458138   64.380356   20.270624
H   40.188087   34.589958   57.345467
H   82.308762   17.262959   17.609636
H    7.442760   87.249123    2.671883
H   62.603470   84.991508   99.100487
H   92.297997    1.167797   53.736332
H   95.923622   56.762066   89.820602
H   50.541016    0.827154   27.785629
H   22.121677   65.851852   88.804024
H   28.240860   33.037964   55.587204
H   65.009575   31.547609   30.165667
H   58.354065   78.886581    2.663994
H   89.031723   29.983994   22.828926
H   83.931877   45.773552   11.286769
H   68.814400   84.309654   96.070297
H    1.230567   51.889408   12.901096
H   84.233391   85.611153   45.917923
H   40.844868   89.826889   70.322403
H   52.738319   89.767776   25.128286
H   25.551384   15.625636    8.685409
H   38.742508   64.134827   97.234032
H   49.613689   59.456955   84.191216
H   65.981270   35.752502    9.073730
H   45.819401   17.480095   81.878975
H   59.675022   75.709496   12.028409
H   31.677879   57.518074   18.332499
H   49.253700   63.069069    1.942092
H   82.802277   84.091873   16.281324
H    1.417131   58.099464    8.378730
H   11.583399   35.746151   11.921364
H   93.715317   53.439934   20.594795
H   43.761841   93.477058   37.797642
H   48.586761   99.691383   72.218063
H   17.660576   68.767982   62.372883
H   22.162863   71.103760   93.062477
H   98.389534   34.021477    4.712715
H   46.665581   81.861465   64.616409
H   61.728542   87.101936   88.320412
H   49.468983   94.141464   38.458199
H   56.307133    8.438662   47.034573
H    2.097401   27.433594   93.892502
H   52.483807   50.049168   94.979942
H   43.447880   47.226555   66.786453
H   66.755333   46.078358   90.819565
H   35.182617   29.361023   29.225815
H   47.327267   86.516701   87.770462
H   39.814774   69.665390   11.165979
H   95.152786   11.199339   49.461090
H   76.636749   52.959450   76.584755
H   31.640301   57.140831   80.894363
H   90.281746   92.344116   14.137917
H   75.343079   25.250425   27.544640
H   39.687511   19.604439   15.533085
H   53.907349   16.142990   37.982155
H   60.241692   20.685471   46.568459
H   30.110167   48.692093   92.713081
H   82.651787   59.572018   13.647202
H   23.449898   79.237068   21.159407
H   85.834274   92.201202   28.282005
H   92.776207   90.054916   26.820333
H   20.098495   58.675934   80.706062
H   56.071648   11.919323   99.063080
H   81.767159    9.125921   46.939762
H   69.413834    9.442928   49.459198
H   24.316063   55.584438   29.235188
H    2.282417   69.139282   27.847588
H   23.307655   30.447912   97.520439
H   55.637585   88.839622   10.609807
H   82.081444   16.644945   13.470844
H   91.553268   67.810616   84.466995
H   22.330812   49.787937   31.827110
H   37.340500   39.896225   11.681798
H   35.695736   42.399700   55.773830
H   36.462154   52.508560   80.747879
H   98.027916   28.420374   50.670567
H   37.397205   20.665995   47.612221
H   90.587921   69.571106   24.833961
H   22.107403   55.632092   29.837166
H   51.841576   11.159004   84.006165
H   76.367462    3.775568   82.561714
H   81.996773   23.571798   17.825661
H   54.230057   57.108078   69.543770
H   75.914314   41.899807   60.239574
H   72.106117   90.872124   57.681358
H   66.641289   65.622421   17.010752
H   69.785530   90.146263   12.313798
H   34.670200   36.150093   45.223259
H   98.653152   45.658684    1.954922
H   61.954422   40.448254   64.265259
H   11.520812   27.033936   35.748535
H   48.307365   42.316143   38.836468
H   17.988510   46.134090   75.559273
