100
TIME:    9.166, STEP:  9166
H   97.463287   81.455818   90.754288
H   47.333267    1.554950   56.051640
H   37.326008   33.342125   15.745525
H   83.015091   55.011589   37.742874
H   13.063959    7.452498   17.178051
H   85.879639   91.277885   86.485718
H   72.578819   80.270500    7.246319
H   99.456772   81.577194   66.603004
H   28.310097    5.018434   23.119776
H   24.403151   47.995182   66.606697
H   47.656036   35.054810   56.832664
H    5.998886   83.134926   40.482735
H   59.264267    7.183109   14.215954
H    1.236508   76.823708   54.777676
H   91.936226   51.280525   10.108681
H   32.979004   10.037124   72.182678
H   87.031746   88.230644    7.805494
H   97.075089   48.821312   81.787186
H   88.030304   62.880444   46.261265
H   45.566364   11.163717   40.396477
H   20.353279   43.713440    8.463428
H   41.133694   56.251984   38.708694
H   63.362892   20.081331   70.100296
H   67.405212   46.480194   26.326971
H    1.756470   59.251816    4.230957
H    4.387501   55.889816   28.320253
H   71.685326   61.459202   81.834763
H   59.140335   84.277603   69.753624
H   10.476808   80.703362   23.889900
H   52.457848   63.980942   12.059467
H   76.796455   43.988506   84.194351
H   44.504078   99.267090   50.721535
H   15.997162   97.854706   23.542624
H   65.387436   33.713409   85.602913
H   52.839363   65.675179   82.719818
H   69.422226    3.352505   90.610298
H   58.936897   68.856209   30.710165
H   85.144066   91.210335   69.259315
H   58.174046   81.706261   56.058792
H   99.859085   54.093712   59.197426
H    8.820646   70.688202   58.291470
H   27.753448   77.547638   47.900776
H   90.169769   18.472630   63.541241
H   94.066566   66.500404   76.936470
H   61.572266   70.259605   40.471859
H   59.809448   37.738232   20.399214
H   13.353074   23.316919   13.454082
H   56.747066   89.776825   35.717289
H   32.961258   73.321510   78.839417
H   18.178190   70.248955   42.646282
H   42.872211   84.725090   50.052887
H   50.596905   13.201889   72.345161
H   98.993965   75.156311   70.526810
H   64.423828   57.656288   36.285713
H   10.984108   61.870239   78.301575
H    5.012001    2.891981   80.594513
H   77.335922   25.065651   27.750433
H   43.536316   11.271387   77.459618
H   13.181648   26.065233    7.811201
H   54.156330   32.317501    2.907738
H   37.900043   52.308681   99.743828
H   73.598656   42.626236   80.623253
H   96.340057   81.811424    4.930328
H   72.453613   91.694092   78.283707
H   96.136673   28.770283   49.158543
H   38.266914   86.604668   88.149818
H   52.163345   65.251953    9.596203
H   47.207504   41.751228    4.390411
H   13.733265   91.176041   85.357239
H   16.181686    9.029865   82.402679
H   30.963921   71.745033   52.202950
H   18.469656   47.253319   27.910252
H    9.351536   64.920830   26.732983
H   28.430202   69.302650   58.540871
H    4.007046   41.811680   96.274033
H   42.348564   95.027214   79.173294
H   99.250809   32.459866   53.304993
H   62.607609   51.384911   20.653351
H    1.057763   26.595287   19.949411
H   50.015831    9.703547   31.262047
H   90.255165   24.108835   27.822746
H   29.105625    3.917280   20.176714
H   97.643150   60.406162    2.865824
H   80.754784   96.513405   26.245029
H    6.023300   75.531235   59.212738
H   40.336681   45.736984   78.298004
H   79.331261   36.909294   60.613441
H    3.443257   71.603065    0.540860
H   45.906010   83.824333   53.224739
H   55.942036   32.162323   51.877739
H   99.133141   68.366257   27.031273
H   56.490078   84.850464    8.177812
H   73.011810    2.539122   27.825434
H   33.123802   69.263535   44.846844
H   98.114639   28.695156   26.710115
H   50.995621   33.775940   94.012909
H   35.047997   93.696861   10.042892
H   20.584810   39.993969   94.870689
H   72.065971   76.383202   77.289299
H    8.547813   43.419315   14.749647
