100
TIME:    2.988, STEP:  2988
H   15.256205   48.006462   96.410416
H   18.153664   66.750931   66.482132
H   31.115789   88.873093   88.264351
H   81.978134    9.544146   76.381531
H   68.407806   12.258878   84.688187
H   81.686287   97.970970   74.658073
H   96.369865   63.103104   24.118431
H   85.035385   47.101360   33.845798
H   80.177193   99.009262   12.002590
H   93.187553   59.286613   24.696383
H   22.318542   86.471329   51.929699
H   41.797836   73.463730   80.240166
H   53.194832   80.929138   28.146336
H    7.132934   95.866005   84.628151
H   16.845779    3.127384    7.141097
H   81.383087   50.387726   85.011086
H   83.829903   79.603241   45.397778
H   64.996788   49.394264   95.954773
H   91.805840    3.701936   20.782259
H   12.018311   42.361156   19.769526
H   86.964569   58.753349   76.142090
H   48.842819   48.050598   64.822479
H   45.849922   70.321007   46.860703
H   41.423950   72.518066   85.158791
H   22.715828   49.196617   58.607437
H   32.958210   38.576687    9.106501
H    4.419846   18.268942   59.260059
H   80.422813   95.909462   65.541557
H   76.141800   20.186731   15.927958
H   15.566846   16.887375   20.925884
H   33.651257   89.995392   72.977898
H   54.421303   69.954185   22.649910
H   80.828583   49.865730   66.979591
H    4.350814   99.890480   45.870804
H    6.497162   33.050354    6.677757
H   32.349728   19.207479   10.368653
H   66.386208   95.107895   43.907955
H   40.491333    4.265328   33.296238
H   18.947418   16.313662   54.752701
H   81.756912   32.456451   73.124672
H   31.042639   58.706944   12.741946
H   63.076744   45.962173   43.179520
H   36.978230   81.418091   17.300289
H   88.555511   62.851738   72.884117
H   97.469032   14.001165   11.802012
H   39.538296   19.908314   95.301613
H   65.078415   87.334869   54.143196
H   56.398991   26.147554   53.458427
H   52.370087   84.983391   25.281000
H   88.548790   76.222542   74.679230
H   43.316654   81.171204   84.921829
H   50.343525   86.475220   77.905724
H   70.860329   39.334167   29.330574
H    7.500301   58.458076   63.668610
H    2.883705   20.444649   25.762354
H   97.304886    9.391706   90.908234
H   85.677986    3.329106   40.171181
H    3.563885   94.707581   36.592606
H   25.934113   65.019058   82.093254
H   61.840233   57.456623   78.624763
H   48.186287   39.615887   81.427567
H   92.864647    0.130228   60.158836
H   76.916374    3.386995   28.574356
H   48.220528   58.048477   46.017963
H   50.922192   22.197098   73.828453
H   17.787453   93.730598   22.858273
H   47.835945   51.664097   11.322627
H   73.964119   88.423645    9.046279
H    5.822514   35.087700   72.831306
H   90.922180   98.429756   95.441254
H   27.150486   92.095863   26.306068
H   27.593195   52.359253   75.389862
H   12.168180   70.506340   85.134758
H   64.436333   60.294182   25.622826
H    6.235857   32.897671   27.909008
H   96.293968   99.074944   94.875458
H   38.245922   67.567764   43.893955
H   72.362000   55.343586   79.456467
H    4.799421   44.742031   51.019104
H   52.988228   46.221539   63.502335
H   69.353012   60.193890   58.574390
H   65.518295   63.741470   36.923195
H    6.849655   57.131714   14.492008
H   55.718983   67.848602   90.509460
H    6.838117   61.984768   58.099327
H   82.522766   18.807819   49.279049
H   66.716484   86.100975   66.022675
H    4.055101   66.067902   64.668587
H   17.692303   27.804754    3.754077
H    2.158642   86.340652   31.032078
H   46.303894   34.775394   96.562820
H   99.372818   20.220713   90.458977
H   76.991241   17.171217   50.071068
H   36.029476   94.476738   28.284527
H    4.928679   82.082886   84.748405
H   40.718155   77.738655   13.115036
H   25.428799   39.155636   65.346977
H   17.835089   41.678711    8.225788
H   66.372032   49.730389   94.759972
H   24.807405    1.958232    9.895679
