100
TIME:    7.109, STEP:  7109
H   36.569168   70.091499   92.637527
H    4.143829   90.089775   26.350048
H    1.967845   85.354210   39.892834
H   82.669830   39.760345   50.495068
H   31.496168   42.575039   72.951248
H   17.775974   93.506386   82.774521
H   80.386871   41.371815   46.386211
H   61.132912    3.621480   55.469833
H   78.875084    2.791950   52.601452
H   80.587532   18.459703   86.063850
H   38.993164   52.288548   54.974022
H   84.510193   80.028152   86.903008
H   90.432304   31.686260   18.633965
H    3.086448   83.163948   98.237206
H   66.951912   35.021904    9.031712
H   15.685966   89.949768   42.932129
H   52.443642   52.174961   20.548670
H   53.090282   48.915024   53.090332
H   55.987766   76.585419   37.891186
H    0.990890   54.842930    0.346424
H   42.418579   48.494446   64.289467
H   43.927094   53.521286   13.881226
H   90.826805   36.805183   28.954336
H   58.530136   21.872530   79.097931
H   75.325874   22.380547   89.041481
H   14.087749   16.527981   21.894011
H   49.062328   46.965027   41.022404
H   32.705238   88.263802    1.756971
H   65.749214   94.076363   21.125635
H   73.583923   14.892332   48.533440
H   95.838493   59.532562   46.937553
H   14.623726   56.094883   41.148308
H   71.106331   48.353798   38.231819
H   78.473747   22.225174   72.260574
H    4.032270   21.418953   57.570114
H   90.611153   42.236465   97.076088
H   61.643730   44.189087   68.626740
H   70.162773   28.854206   24.104034
H   45.000011   26.522741   55.397278
H   93.605247   46.662846   97.355515
H   49.401520    0.112124    9.829935
H    1.106045   69.481094   42.886814
H   72.467316    6.132700   14.965055
H   25.410252   31.966879   75.815422
H   40.002670   51.405834   64.446480
H   86.360649   98.510147   12.042337
H   97.273727   11.449372   93.703468
H   56.621517   68.590378    8.442368
H   72.831490   43.682148   60.895203
H   74.994385   38.936962   86.470924
H   43.013454   83.315247   28.365559
H   50.626072    4.075892    7.375188
H   56.335766   63.229126   89.989082
H   12.065811   91.212311   45.516312
H   74.765640   81.603951   60.815975
H    2.450010    5.055745   50.619659
H   46.930874   84.419090   32.112602
H   96.705246    5.529801   30.444822
H   50.948013   39.146702   65.726830
H   89.898445   74.210129   61.413719
H    8.141445   47.969444   60.121277
H   46.605629   61.772507   73.695419
H   56.691525   22.177711   45.984985
H   31.201595   80.488815   34.130505
H   14.490397   93.060089   57.599308
H   64.630341   88.863976   66.523407
H   17.200117   94.139526   10.284339
H   89.298378   24.108965    6.053908
H   11.212654   38.978928   14.367822
H   74.410606    5.703114   86.763611
H   96.288765   11.705476   76.873390
H   87.851067   15.562230   77.134544
H   43.471466   66.670181   79.474915
H   73.709785   99.491394   80.761200
H    4.919701   38.782803   40.310780
H   93.716972   63.194508   17.584249
H   12.431586   10.497990   16.820486
H   65.974075   85.880424    7.042097
H    2.416873   32.637348   96.994331
H   50.892715   21.758751    8.474494
H   49.985352    2.828181    4.877797
H   74.749702   90.573639   92.265526
H   67.536598   26.005651    6.967870
H   39.237385   20.491673   14.120363
H    6.180265    4.211516   58.614540
H   87.676620   70.181503   35.453857
H   41.948826   86.470253   62.527916
H   70.361290   36.204441   21.868614
H    3.214172   98.355019   70.048347
H   37.807598   16.791584   78.345535
H   14.952320   57.295952   83.590866
H    4.292910   30.143711   68.978004
H   41.154011   40.825123   68.754463
H   34.324097   44.467613    6.147937
H   33.683128   12.948181   79.443909
H   81.095825   15.005469    0.259618
H   98.323723   75.650711   28.344345
H   24.555307   38.212666   36.168747
H   70.056725   67.500587   49.584660
H   80.778175   96.206680   12.907338
