100
TIME:    1.232, STEP:  1232
H   34.006752    9.040649   98.018082
H   66.999916   71.543419   55.714413
H    0.932211   62.539013    8.874168
H   81.683395   81.891197   72.634270
H   84.136139   71.507759   32.299828
H    8.912025   99.873375    0.754243
H   88.401314   44.528751   86.796776
H   23.053528   95.186142   95.075401
H   23.343086   67.841599   22.536692
H   41.171913   34.073051   55.935646
H   85.657394   15.814420   21.077333
H    8.816875   85.444618    5.234332
H   64.893402   87.169548    2.678589
H   94.080528    1.278784   50.996616
H   95.485817   59.977489   91.550949
H   51.988464    3.976094   30.773911
H   25.015888   63.471115   85.526253
H   27.471542   34.788635   56.835251
H   64.448723   30.037264   28.269152
H   59.323883   79.651230    0.212972
H   91.168015   33.568008   23.806023
H   80.479973   45.726036   14.352160
H   69.295052   84.602440   97.100266
H    4.575389   51.457645   15.574825
H   85.520988   88.466499   45.652328
H   41.009937   90.899704   73.696854
H   55.842781   91.264114   24.413900
H   28.588829   13.945209    7.495467
H   37.959732   60.868595   98.935814
H   48.233257   60.347946   81.329277
H   64.565132   32.524170   11.922348
H   43.546329   18.474632   85.211678
H   57.139103   78.343468    8.785245
H   30.156822   60.817268   19.849024
H   50.148537   65.790382   99.750000
H   79.672272   81.263992   16.405195
H   97.964195   59.417824    5.542129
H   13.071291   36.405056    9.380981
H   95.333603   54.208427   24.045326
H   47.152496   96.847115   34.965092
H   51.046875   98.455971   71.369919
H   20.896049   67.152443   60.681538
H   21.852774   70.887878   90.462013
H    0.688392   33.418053    1.192833
H   49.788170   83.281998   61.535622
H   62.192989   86.415291   88.174294
H   49.088856   92.199631   38.150581
H   56.305210    8.068010   44.807095
H    1.045160   30.415009   95.328415
H   51.728771   49.501225   97.498009
H   43.450626   50.702080   66.406876
H   65.005760   49.419025   93.182724
H   34.435822   29.152283   31.316650
H   48.160854   87.103920   86.181839
H   42.680832   66.509567   10.860491
H   95.107742   11.237173   50.686615
H   74.354340   53.998207   73.160866
H   34.320984   60.540550   81.821609
H   87.442329   90.823059   16.901665
H   77.718872   22.483244   28.568565
H   37.416637   21.278481   18.339828
H   55.185059   16.478073   39.611153
H   57.799706   23.140503   49.038185
H   27.638105   48.496262   93.690315
H   81.223015   62.447414   10.294587
H   25.661446   81.026741   19.030806
H   88.722580   90.956451   26.543831
H   95.262962   87.996078   25.099325
H   18.304153   61.262665   82.963753
H   55.342430   10.108570   99.138885
H   82.910286   11.575460   47.371525
H   72.382339   10.637760   46.823303
H   26.663429   57.365047   30.158314
H    3.074754   71.417297   29.987175
H   21.571953   30.396688   94.791435
H   54.786419   86.532494   13.032086
H   78.813011   19.765200   12.833843
H   89.861923   70.164436   82.479019
H   20.605135   49.893406   31.425697
H   39.106003   41.857010   14.783170
H   34.991238   42.027264   53.622158
H   33.760891   52.273453   83.758133
H   95.749901   27.819559   47.241734
H   34.920612   17.585428   50.900429
H   92.340790   71.822754   28.323769
H   22.936047   54.309612   27.337227
H   49.437218   13.776497   82.289551
H   75.787933    6.657763   82.935799
H   81.249702   25.576117   18.120232
H   57.412796   58.589310   68.256721
H   74.441048   39.956051   59.479321
H   69.442482   88.164543   56.995537
H   64.331413   64.543564   14.225624
H   66.306160   87.962730    9.886506
H   35.292576   39.374855   44.395988
H   95.679703   47.080315    3.814409
H   64.811966   38.382275   66.335632
H   11.388633   26.727417   36.324493
H   50.022331   42.160961   41.851940
H   15.752792   47.058865   79.026558
