100
TIME:    3.032, STEP:  3032
H   12.280703   43.971428   96.370132
H   16.929726   69.136368   69.257645
H   31.872107   92.038681   87.748055
H   81.985519    7.731234   73.969910
H   68.013702   15.785672   83.495132
H   81.004158   97.923302   79.015373
H   94.063652   66.074089   27.559288
H   81.577072   50.907787   29.805729
H   79.095589   94.778854    9.232868
H   91.985100   59.918388   26.419497
H   18.225769   88.241776   47.691570
H   40.118362   75.669235   77.108147
H   50.396156   78.267090   23.773090
H    4.954368   95.730385   87.976357
H   17.381042   99.197189    5.026019
H   79.613983   46.539337   81.358742
H   80.291695   82.513702   49.403271
H   65.936729   47.254555   94.429382
H   92.491325    5.547872   23.100222
H   10.832977   41.426922   22.765253
H   84.353546   54.372887   74.947693
H   53.061142   48.109009   61.075470
H   45.262459   69.963158   45.601852
H   37.335876   73.045776   81.891151
H   21.142265   45.707085   58.932053
H   32.756458   37.265804    4.982393
H    0.625656   16.439917   60.133198
H   76.710045   97.963234   66.995781
H   77.098526   24.178629   13.848169
H   17.253895   15.798369   24.423641
H   35.383099   93.941132   69.496758
H   57.199501   68.738304   18.576607
H   83.927704   46.646431   70.943459
H    6.209968   95.858131   44.017105
H    5.403347   29.724304    9.356926
H   36.175289   22.663946   10.217423
H   70.606544   93.496567   47.374996
H   38.672882    3.460042   36.401066
H   17.090027   15.355089   50.488724
H   77.612442   28.337309   76.586342
H   28.035666   60.216557   13.778483
H   59.122276   47.937057   45.246719
H   37.357227   81.681946   20.478466
H   85.745758   63.589256   77.186363
H   93.652199   12.265211   15.567317
H   38.970638   20.747547   95.480202
H   65.422165   89.727692   54.565834
H   56.401340   26.600573   56.180901
H   53.656128   81.339104   23.525827
H   89.471275   76.891914   71.601593
H   43.313297   76.923340   85.385757
H   52.481892   82.392517   75.017418
H   71.772743   39.589294   26.775108
H    6.481472   57.740028   65.610260
H   99.380447   24.300758   26.136484
H   97.359940    9.345465   89.410370
H   88.467598    2.059451   44.355934
H    0.287586   90.552368   35.459305
H   29.404175   66.878128   78.715508
H   58.936821   60.838734   77.373299
H   50.961800   37.569836   77.996780
H   91.303001   99.720657   58.167839
H   79.903374    0.384465   25.557144
H   51.242104   58.287827   44.823231
H   52.668804   18.682892   77.925926
H   15.084478   91.543221   25.459728
H   44.305794   53.185123   13.447062
H   70.924751   90.940002   11.149734
H    8.015556   31.926140   70.071907
H   91.813782    0.642707   95.348602
H   25.753162   89.102150   25.778191
H   23.965189   50.898987   78.611176
H    9.299177   68.329704   84.006828
H   63.468006   57.509605   23.007774
H    8.357223   32.960445   31.244625
H   97.333946    1.894904   91.914642
H   42.241009   63.754265   44.672092
H   74.429199   52.466358   81.886215
H    6.909296   44.612789   51.510223
H   50.830391   43.825024   59.711685
H   70.213730   60.649090   61.204212
H   68.819504   64.028824   33.243996
H    9.633476   57.866211   18.682774
H   58.745930   71.613739   86.490540
H    4.695596   59.232418   53.834007
H   81.510315   20.424015   52.334530
H   69.655144   82.901817   68.120758
H    4.763247   62.545135   64.210701
H   18.605556   25.355032    3.394088
H   98.268494   84.530594   32.604904
H   48.104553   37.151096   97.492020
H    2.628571   23.529642   91.297539
H   79.811737   18.491499   53.473656
H   40.282375   97.145500   31.251217
H    4.167871   78.141846   85.759514
H   44.352371   76.001106   10.842308
H   21.936413   41.680721   62.816521
H   17.996557   42.053345    7.521755
H   64.275963   49.920055   91.074577
H   27.540285    0.829253    5.656962
