100
TIME:    4.309, STEP:  4309
H   25.921883   26.863983   95.201004
H   81.471657   38.362495   49.802666
H   53.822495   83.911018   72.763725
H   82.199860   55.119743    3.971333
H   56.575729   18.142855   48.869446
H   61.205540   96.539833    5.480406
H   27.136063   52.302876   27.422419
H   81.207390   61.384144   12.555283
H   47.704491   72.000580   28.850386
H   57.086617   78.254219   76.426544
H   99.442352   39.624363   24.685131
H   91.377205   39.678413   86.210045
H   69.100937    1.015770   96.858154
H   41.724190   91.794319   85.156799
H   32.915550   85.130341   43.643017
H   28.269405   34.848259   75.356384
H   77.602943   66.976288   65.653618
H   93.216393   85.153877   50.155338
H   12.382496   59.123123   90.377640
H   76.424706   14.309706    9.709330
H    8.574539   27.242725   40.289703
H   75.488373   49.804245   52.327118
H   28.212669   59.577400    9.063993
H   18.688744   88.361359   87.049103
H   75.469757   44.434792   68.362770
H   26.903467   99.268723   85.219505
H   90.508949   63.359272   85.465797
H   68.960083   57.569260    9.202909
H    4.865668   40.037899   53.483162
H   66.219421   84.191734   25.941429
H   85.641685    8.452310   68.464577
H   37.829998   33.458549    0.358360
H   73.878273   53.215157   85.985703
H   60.167130   78.828644   90.220467
H   73.660950   33.192863   87.116608
H   47.211430   22.928532    5.881248
H   93.088333   46.731430   47.997608
H   85.893150   80.095665   26.515858
H   63.190556   87.532524   26.737886
H   57.333069    8.788747   77.058105
H   40.761688    4.037721   43.863873
H   44.352768    5.247341    5.242213
H   48.356777   89.339737   12.717812
H    4.200655   84.984497    2.046311
H   82.881508   61.878006   24.843695
H   22.495670   45.104389    0.664368
H   75.398727   59.176048   66.829689
H   56.469540   39.751266   35.194405
H   90.987595   75.577789   72.587830
H   16.250217   96.318932   82.287086
H   43.215870   53.637505   98.850220
H   14.541983   63.897312   91.183563
H   98.253502   46.993774   52.610111
H   76.904655   36.900314   21.960365
H   97.705536   36.218731   36.997005
H   98.957748    8.001074   45.938278
H   69.422516   65.212318   65.809196
H    5.198756   69.955727    2.564434
H   30.118338   20.834732   80.679314
H   74.668503   58.993229   41.052376
H   31.516176   78.182884   78.431892
H   45.979790   87.834518    0.384195
H   66.599663   13.244443   37.989403
H   38.930786   65.236130   10.148830
H    3.353089   16.690952   96.847084
H   36.636330   28.059547    0.965485
H   41.849716   97.336823   75.100571
H   82.713570   63.973587   72.197716
H   71.663376   40.169067   89.979279
H   17.687071   64.874512   92.659607
H   85.201759    2.215139   10.457737
H   18.670677    8.517652   72.107506
H   26.036943    5.166874   51.267441
H   35.352337   76.698219   47.127556
H   69.924080   34.782337   28.049814
H   27.524782   83.739586    5.989063
H   58.185013   53.071590   67.255760
H   34.424984   68.966759   52.410927
H   68.143394   40.861835   65.762642
H   88.203613   74.277443   49.696983
H   95.194107   73.860245   37.527248
H   64.635704   72.368607   26.461905
H   90.426613   79.183319   40.311016
H   46.601952   80.889351   69.855576
H   42.517212   79.354698   30.043091
H   52.122280   67.333397   41.013336
H   54.943092   90.053513   29.013380
H   25.315550   60.305260   50.931198
H   45.108261   54.253761   92.948738
H   85.365189   31.991821   78.252670
H    0.364600    6.105888   24.460001
H   97.118790   19.559761   15.632780
H   61.668755   56.809685   52.226116
H   63.710011   74.606384   17.352766
H   82.090111   63.756714   15.103379
H   49.827332   25.573322   44.883583
H   20.574219   14.965089   89.374176
H   22.682814   52.926239   87.084160
H    3.442406   55.424702   84.112984
H    6.860434   68.054909   82.640717
