100
TIME:    6.975, STEP:  6975
H   45.631180   82.380013   92.760208
H    7.844313   82.829124   17.900928
H   99.664261   75.713554   41.466213
H   82.647339   45.280975   57.840572
H   32.696609   31.834349   76.584641
H   19.854389   93.651558   69.504562
H   87.410339   32.323093   35.907238
H   71.665047   92.028412   67.773369
H   82.169060   15.675714   61.036770
H   84.247505   16.535662   80.817207
H   51.457520   46.896732   67.881355
H   89.623932   73.311386   96.441429
H   98.977486   39.796055   31.950371
H    9.721163   83.576973   88.040398
H   65.324348   46.991447   15.475513
H   21.074203    1.669892   54.055176
H   63.219093   43.312305    8.350121
H   50.224667   55.435501   57.734818
H   53.901173   70.964600   30.831936
H    4.600769   57.688099   91.223076
H   50.370331   61.834946   67.926949
H   31.080383   53.343399   25.292572
H   92.615898   37.894997   32.788513
H   70.980629   20.269503   89.049377
H   80.118599   33.007759   88.051857
H   14.719555   20.477787   34.504150
H   60.617825   52.535751   38.363300
H   44.011284   82.009132   97.327896
H   62.835548   81.918709   27.459536
H   68.445648   18.208885   37.880669
H   90.565269   47.517014   57.539207
H    6.163077   59.796772   53.553368
H   61.667843   58.158028   26.160040
H   72.812035   34.505508   77.905930
H    7.367267   31.564644   49.416962
H   78.962624   31.741123   97.497292
H   48.791908   49.096313   58.068027
H   75.701805   31.306797   14.648421
H   50.656612   29.442030   68.383026
H    6.226765   59.207966   86.813156
H   58.559631   95.513664    6.673208
H   12.399042   68.955612   36.046345
H   71.314117    5.328886    5.286318
H   33.966206   29.717733   62.713226
H   51.625641   56.692348   52.979923
H   88.090446   95.954300   11.497942
H   96.226852    4.161697   92.417366
H   56.613338   67.210220    0.151425
H   68.913887   54.779636   66.240585
H   72.180908   36.897396   95.839638
H   43.022655   96.251923   26.953197
H   44.112751   16.510559   16.171150
H   53.556026   62.452148   97.771126
H   15.168610   93.398071   39.603104
H   85.434769   69.861366   59.676067
H    2.283113    5.196700   55.181335
H   38.436260   88.285576   19.368126
H    6.683097   18.184797   33.896469
H   40.380096   33.483967   76.013603
H   98.741676   63.911076   65.224998
H   99.688499   54.200600   70.569199
H   51.361549   63.019760   79.757889
H   47.593731   31.322021   55.173767
H   22.000034   79.758865   37.769009
H    9.171679    3.762160   45.120640
H   72.862213   95.525536   58.600281
H   27.951544   89.506287    3.814548
H   98.554634   16.445002   99.647934
H    4.533904   48.607315   22.772419
H   71.695274   98.963310   87.045776
H    0.543787   20.822815   78.480507
H   98.878014   20.021187   67.313957
H   52.208374   73.296982   82.909973
H   76.660255    7.972126   88.723175
H   98.464592   38.585911   30.150848
H   90.549767   54.605839   26.600767
H    0.261328   22.096424   14.444059
H   59.678509   94.641869   99.641594
H   95.990761   33.030949   95.499672
H   57.464310   29.058762   20.018578
H   47.363052    1.441570   96.868973
H   64.693977   89.704651    3.476306
H   59.060814   23.764685   94.206604
H   30.018845    9.024765   26.358822
H   12.704832   12.593928   71.604378
H   90.759995   65.259964   26.148529
H   32.999271   96.213142   56.138298
H   68.206200   46.927753   23.257973
H    0.433026    5.815815   71.144295
H   49.655483   22.305058   73.554855
H    9.468494   50.060860   80.761032
H   94.378265   20.066006   66.424202
H   32.564320   36.804264   58.392036
H   21.373711   36.337975   97.112595
H   35.999748   24.951462   76.364624
H   70.027985   20.296633    7.181101
H    8.959915   67.960678   36.050980
H   24.813959   31.582767   38.858521
H   76.440208   66.921944   60.808918
H   72.454292   99.645828   25.816349
