100
TIME:    7.186, STEP:  7186
H   31.361929   63.030190   92.567032
H    2.017467   94.261940   31.205139
H    3.291473   90.893990   38.988728
H   82.682755   36.588043   46.274143
H   30.806192   48.746929   70.863403
H   16.581661   93.422966   90.399796
H   76.350998   46.571453   52.407711
H   55.080864   10.282828   48.399712
H   76.982277   95.388687   47.754292
H   78.484413   19.565310   89.078712
H   31.830811   55.386829   47.557297
H   81.571701   83.887787   81.421974
H   85.522285   27.025913   10.981960
H   99.273949   82.926613    4.096951
H   67.887154   28.143883    5.328876
H   12.589741   83.215088   36.540527
H   46.251778   57.267681   27.558283
H   54.736942   45.168182   50.421486
H   57.186779   79.815292   41.947620
H   98.916245   53.208019    5.588880
H   37.849289   40.828636   62.199780
H   51.309158   53.623505    7.323967
H   89.798744   36.178947   26.751055
H   51.375420   22.793673   73.379562
H   72.571846   16.273865   89.610146
H   13.724697   14.258316   14.647916
H   42.422230   43.763939   42.550396
H   26.208218   91.857903    4.302303
H   67.423485    1.062452   17.486006
H   76.536514   12.986454   54.654808
H   98.868629   66.437225   40.845558
H   19.485531   53.967678   34.020027
H   76.529793   42.720024   45.168587
H   81.727119   15.168582   69.016602
H    2.115891   15.588966   62.255135
H   97.304710   48.267365   96.834053
H   69.029129   41.369263   74.694061
H   66.979897   27.444881   29.537483
H   41.749577   24.845240   47.935318
H   86.352425   39.454082    3.413601
H   44.139023    2.753996   11.643875
H   94.616905   69.783051   46.817532
H   73.129974    6.594593   20.526600
H   20.493771   33.259300   83.344353
H   33.323799   48.368061   71.035469
H   85.366661   99.978806   12.355162
H   97.875290   15.637105   94.442497
H   56.626217   69.383453   13.206549
H   75.082649   37.305233   57.823357
H   76.611084   40.108952   81.087410
H   43.008167   75.881485   29.177139
H   54.368359   96.930923    2.320498
H   57.933079   63.675598   85.517311
H   10.282860   89.956314   48.914200
H   68.634872   88.351555   61.470997
H    2.545913    4.974749   47.998398
H   51.812107   82.197304   39.435921
H   90.971603   98.258003   28.461252
H   57.020622   42.400661   59.815773
H   84.816887   80.128235   59.223656
H   12.998739   44.388855   54.117989
H   43.872749   61.055801   70.211761
H   61.919361   16.923145   40.704865
H   36.489307   80.908264   32.039722
H   17.546677   86.910522   64.769890
H   59.900085   85.036064   71.076248
H   11.022058   96.801910   14.002101
H   83.979485   28.512884    9.734954
H   15.050406   33.446198    9.538432
H   75.970909    9.576070   86.601471
H   93.843742    6.466331   75.949898
H   81.514687   12.999862   82.777718
H   38.451004   62.862064   77.501038
H   72.014366   94.617798   76.186035
H    8.628652   38.896183   46.148991
H   95.536934   68.129295   12.403218
H   19.424969    3.833264   18.186045
H   69.591675   80.845863   11.294614
H    6.109169   32.411175   97.853203
H   47.116501   17.563969    1.840948
H   51.492653    3.624825    9.480077
H   80.527992   91.072983   85.823402
H   72.406670   27.293371   14.301029
H   44.534542   27.080956    7.087702
H    2.431074   99.394737   51.150230
H   85.904831   73.009552   40.800949
H   47.091480   80.871727   66.199562
H   71.599663   30.042631   21.070251
H    4.812293   94.067711   69.418587
H   30.999529   13.623394   81.098389
H   18.103474   61.453430   85.216965
H    9.990129   35.934830   70.445488
H   46.089878   43.135616   74.708992
H   41.765495   49.139122   11.339818
H   32.351936    6.050795   81.213348
H   87.455704   11.964906   96.282478
H   92.211754   80.069611   23.915752
H   24.406679   42.022366   34.623131
H   66.388603   67.833092   43.134899
H   85.561302   94.230453    5.489560
