100
TIME:    4.102, STEP:  4102
H   39.920319   45.846985   95.390518
H   87.188667   27.144838   36.749878
H   50.264366   69.018364   75.192665
H   82.165115   63.647881   15.318028
H   58.429810    1.550892   54.482224
H   64.416023   96.764091   84.980980
H   37.984524   38.324627   11.234750
H   97.477180   43.476635   31.561901
H   52.792946   91.902725   41.880871
H   62.743614   75.282005   68.321655
H   18.696976   31.295216   44.623890
H   99.276787   29.302515    0.944725
H   82.310074   13.533966   17.426834
H   51.973747   92.432350   69.405014
H   30.397667    3.620487   53.594090
H   36.592590   52.953178   92.539001
H   94.248604   53.285130   46.809593
H   88.794395   95.220238   57.333187
H    9.158386   50.438637   79.471100
H   82.002739   18.705645   95.615898
H   20.858215   47.850811   45.907219
H   55.643082   49.529449   69.955093
H   30.976418   61.260918   14.986705
H   37.921272   85.878723    2.422067
H   82.873444   60.851456   66.834023
H   27.847090    5.388109    4.685545
H    8.358412   71.963333   81.359657
H   86.426971   47.907196    2.360262
H    0.364389   21.257496   63.268410
H   58.281937   89.314934    9.486073
H   77.495735   89.889931   84.841759
H   24.759840   39.177139   19.521339
H   59.297810   68.360497   67.337509
H   51.421051   97.799011   98.941277
H   78.806259   48.840416   74.510757
H   29.217062    6.715384    6.532506
H   73.233566   54.311996   31.686758
H   94.449715   83.882790   11.908943
H   71.927307   92.042961   46.797752
H   76.830376   28.167507   60.772205
H   54.908920   96.934921   38.987041
H   62.956741   95.957214   95.517258
H   46.573765   88.098419   97.766045
H   17.418535   81.516388   81.806274
H    0.837937   70.045654    7.129650
H   25.166241   41.156178   99.823158
H   73.781540   47.918907   64.842949
H   56.458485   37.619232   22.386406
H   84.935776   92.722504   80.844330
H   11.908763   93.169838   96.765968
H   43.231663   73.621773   96.667648
H    4.482729   83.104584    4.772237
H   93.961006   45.793518   64.633125
H   81.699364   40.278404   12.826571
H   14.186705   18.077486   35.236103
H   98.698746    8.219015   52.985046
H   56.299587   71.185173   46.121834
H   20.612297   89.504112    7.896521
H   13.793272   12.088041   96.570076
H   88.329315   43.081936   46.939949
H   18.457861   87.810204   94.572182
H   53.326622   89.761246    9.750669
H   52.545902   27.370277   52.184013
H   24.716051   64.108521   15.769505
H   95.137260   33.223751   77.570335
H   49.352730   38.350166   88.726059
H   58.457474   90.179504   65.106857
H   97.012413   52.135269   62.301922
H   61.347084   55.042770    2.961292
H   13.493280   54.462418   93.095490
H   91.774742   16.299603   12.941162
H   35.738625   15.387935   56.951954
H   39.533859   15.405376   56.575417
H   39.910152   89.796806   59.427025
H   59.943645   34.487011   12.357253
H   22.630579   70.473595   19.917309
H   39.389946   71.013229   63.594975
H   24.699749   82.501228   40.978485
H   58.216934   41.469860   63.453354
H   98.355255   85.550377   67.530266
H   91.144821   71.718735   25.155569
H   49.103500   71.016739   43.771118
H   77.331184   75.727844   20.595226
H   32.361542   63.176094   88.762772
H   52.596207   92.301674   50.109482
H   56.886982   59.729836   26.638687
H   41.118034    5.104118   19.142851
H   21.984049   76.878273   53.083763
H   40.812607   65.779381   94.641731
H    3.666162   40.508904   70.852142
H   91.893311   94.928215   20.088541
H   81.802887    3.993057   11.688354
H   48.399605   50.598358   36.218487
H   43.702053   62.050827    3.395903
H   85.668770   82.297539   10.346969
H   32.729996   33.747078   55.575340
H   37.004547    3.086104    1.278868
H   21.923178   51.163757   90.397499
H   13.303368   54.532406    1.450502
H   94.002632   73.367622    2.580916
