100
TIME:    6.812, STEP:  6812
H   56.654373   97.327980   92.909439
H   12.345497   73.997139    7.623261
H   96.861206   63.986488   43.380100
H   82.619980   51.996368   66.775391
H   34.156586   18.769178   81.004364
H   22.382610   93.828148   53.361927
H   95.953812   21.316067   23.160425
H   84.476524   77.926086   82.738747
H   86.175911   31.347458   71.296761
H   88.699562   14.194983   74.435097
H   66.619385   40.338032   83.582939
H   95.844376   65.140991    8.043789
H    9.378891   49.654003   48.146904
H   17.791691   84.079384   75.636818
H   63.344551   61.551414   23.313869
H   27.628551   15.926733   67.585449
H   76.326546   32.531612   93.511574
H   46.738880   63.367126   63.384453
H   51.363003   64.127335   22.244938
H    8.991890   61.149014   80.125267
H   60.042984   78.061493   72.351646
H   15.453415   53.127014   39.173538
H   94.792183   39.220665   37.451981
H   86.125084   18.319551    1.154575
H   85.948555   45.934891   86.848061
H   15.488094   25.282402   49.843849
H   74.673195   59.312080   35.128719
H   57.764160   74.400841   91.940659
H   59.291313   67.129921   35.164459
H   62.195362   22.243095   24.922787
H   84.150826   32.901085   70.435249
H   95.871216   64.299896   68.643105
H   50.185764   70.084068   11.475713
H   65.925026   49.443527   84.773041
H   11.424149   43.906044   39.499321
H   64.793144   18.973793   98.009651
H   33.158722   55.065552   45.224216
H   82.439583   34.290173    3.146380
H   57.537403   32.993279   84.179123
H   21.579521   74.467224   73.989243
H   69.699722   89.919991    2.833285
H   26.135834   68.316406   27.725155
H   69.911346    4.351112   93.512413
H   44.373821   26.981833   46.776604
H   65.764183   63.122959   39.031803
H   90.194603   92.845322   10.835730
H   94.953415   95.297134   90.852928
H   56.603390   65.531372   90.065903
H   64.148445   68.279213   72.742081
H   68.758545   34.416431    7.236406
H   43.033848   11.988741   25.235176
H   36.189831   31.636360   26.871010
H   50.174702   61.507019    7.237844
H   18.942909   96.056870   32.410172
H   98.412888   55.576744   58.289463
H    2.080097    5.368160   60.730240
H   28.103258   92.988838    3.865273
H   18.820166   33.578529   38.094833
H   27.525093   26.595715   88.526619
H    9.497919   51.381893   69.861107
H   89.406487   61.780289   83.278702
H   57.146736   64.536942   87.132385
H   36.527012   42.444740   66.351166
H   10.807091   78.870941   42.194950
H    2.701768   16.780746   29.941278
H   82.875610    3.628641   48.962448
H   41.029343   83.870331   95.944839
H    9.814381    7.122435   91.855591
H   96.410194   60.319458   32.995983
H   68.392296   90.765556   87.389008
H    5.720039   31.913162   80.435432
H   12.292222   25.445110   55.368019
H   62.836105   81.357941   87.088440
H   80.249260   18.288338   98.408264
H   90.605095   38.353359   17.793903
H   86.697121   44.158428   37.568306
H   85.457611   36.204967   11.553331
H   52.020473    5.299805   90.640480
H   88.173546   33.509731   93.681541
H   65.458115   37.938210   34.061211
H   44.173241   99.754929   87.126678
H   52.463188   88.647598   17.112858
H   48.750198   21.038733   78.684097
H   18.804760   95.076439   41.245853
H   20.641432   22.790237   87.405449
H   94.510666   59.272331   14.829329
H   22.112871    8.064694   48.365852
H   65.584709   59.971783   24.948013
H   97.050400   14.891233   72.477425
H   64.067459   29.011745   67.727386
H    2.797764   41.259964   77.318771
H   82.317917    7.807100   63.317986
H   22.115665   31.913219   45.786995
H    5.620699   26.448938   86.121735
H   38.817726   39.552467   72.618927
H   56.564865   26.732840   15.600525
H   21.897787   58.606384   45.425171
H   25.128588   23.517456   42.130409
H   84.205193   66.218071   74.461357
H   62.329174    3.828567   41.519176
