100
TIME:    3.659, STEP:  3659
H   69.879059   86.472443   95.796097
H   99.487770    3.129116    8.808458
H   42.649628   37.146645   80.390831
H   82.090759   81.898918   39.600910
H   62.397720   66.042488   66.494110
H   71.283821   97.244026   41.109131
H   61.200520    8.410038   76.591499
H   32.296112    5.152627   72.237373
H   63.682732   34.495544   69.767082
H   74.850136   68.921181   50.973869
H   59.903763   13.470156   87.295982
H   16.185860    7.097425   32.476875
H   10.513906   40.332901   61.453316
H   73.908791   93.797798   35.691837
H   25.008541   43.190445   74.888618
H   54.404251   91.699455   29.312719
H   29.872231   23.985455    6.481557
H   79.330894   16.763695   72.692566
H    2.258832   31.852999   56.131191
H   93.940269   28.113379   65.454369
H   47.146469   91.951965   57.929245
H   13.172241   48.941360    7.680592
H   36.891106   64.863808   27.662659
H   79.080742   80.565643   35.324345
H   98.718048   95.981628   63.562355
H   29.879732   18.584009   46.212440
H   46.559490   90.376602   72.572121
H   23.806356   27.229446   87.718468
H   90.731873   81.065231   84.209785
H   41.294952    0.279093   74.268707
H   60.061848   50.164684   19.890511
H   96.788826   51.415474   60.532097
H   28.092127    0.772954   27.428572
H   32.703598   38.397163   17.603203
H   89.817719   82.327690   47.535080
H   90.695381   71.919769    8.056596
H   30.745045   70.535141   96.780327
H   12.759807   91.987602   80.646660
H   90.624481    1.695433   89.728249
H   18.556877   69.640686   25.916399
H   85.185364   81.732483   28.550154
H    2.771061   76.077103   74.704315
H   42.757946   85.441879   65.765892
H   45.706772   74.094299   38.491615
H   39.264500   87.526093   69.221252
H   30.881519   32.706623   98.025093
H   70.320602   23.826965   60.588425
H   56.434826   33.056473   94.976143
H   71.984299   29.411201   98.514038
H    2.617633   86.430473   27.749226
H   43.265461   16.390663   91.996735
H   82.953613   24.211052   33.855556
H   84.774651   43.224854   90.360329
H   91.960503   47.507843   93.278778
H   49.458481   79.251648   31.467840
H   98.144455    8.685431   68.065811
H   28.216646   83.967659    3.988734
H   53.599358   31.340565   19.307888
H   78.853996   93.369873   30.579369
H   17.563202    9.030233   59.539925
H   90.512856    8.412562   29.111492
H   69.049553   93.884628   29.796127
H   22.469404   57.599663   82.561852
H   94.296196   61.698555   27.798290
H   77.555428   68.606667   36.316227
H   76.567055   60.373085   62.532440
H   93.999680   74.862152   43.719341
H   27.613762   26.799780   41.123959
H   39.266708   86.873932   30.746418
H    4.518164   32.179253   94.028320
H    5.841911   46.441734   18.255932
H   72.265121   30.090195   24.516193
H   68.417816   37.316761   67.933830
H   49.664318   17.830246   85.749077
H   38.586552   33.854984   78.774818
H   12.156821   42.080482   49.724644
H   99.168037    9.408436   55.760548
H    3.886805   11.467062   16.511957
H   36.974754   42.771091   58.508675
H   20.081215    9.676250    5.695134
H   82.478958   67.135696   98.679169
H   15.862956   68.123611   80.813965
H   49.303928   68.332794   78.401611
H    1.884020   25.267712   29.223824
H   74.166229   20.011433   93.053497
H   67.082886   43.455994   95.875137
H   11.531073   37.313820   98.018448
H   14.854315   12.345806   57.690460
H   31.619423   90.445320   98.264900
H   42.833958   58.736282   55.016212
H   73.763947   71.005836   10.733193
H   49.023834   70.681206    3.246623
H   20.003056   37.305519    1.960549
H    0.883334   35.177864   73.525276
H   93.327446   21.978443    0.167795
H   96.139954   51.241035   78.456734
H   72.168213   77.663185   26.757166
H   20.297483   47.391876   97.488365
H   34.406975   52.622807   38.557564
H   66.484123   84.737343   45.257027
