100
TIME:    2.064, STEP:  2064
H   77.742584   32.741928   97.256363
H   43.856361   16.651175    8.196608
H   15.233130   22.396244   99.106575
H   81.823044   47.613853   27.027908
H   76.683990   38.196217    9.741636
H   96.010994   98.972008   83.150780
H   44.795712    0.707776   51.860344
H   57.659966   67.163208   18.683937
H    2.890916   87.848129   70.166679
H   18.436502   46.019341   88.513390
H    8.266769   49.291950   40.934505
H   77.064178   27.148119   46.010933
H   11.971805   36.832634   19.984386
H   52.884239   98.714027   14.310856
H    5.605443   85.662628   51.558739
H   18.535877   31.204231   61.711685
H   58.124939   18.492622   61.275345
H   45.251328   94.328163   27.991058
H   77.410637   64.942856   72.100891
H   36.910309   61.980083   56.859352
H   41.795944   50.740253    1.224242
H   60.257633   46.824181   43.509430
H   58.186653   77.835838   73.296555
H   27.273582   61.436161   53.784409
H   55.763176   22.480263   51.790512
H   37.194996   66.105759   95.713722
H   84.098030   56.680737   40.924152
H   58.386757   52.780254   34.996326
H   56.050552   36.353889   59.605736
H   80.136574   39.756149   47.470394
H   97.293648    7.134802   46.086689
H   96.079529   95.487694    8.189217
H   15.742683   17.470203   83.738373
H   65.310143   84.569534   84.798477
H   29.467484    2.897473   50.410690
H   52.011547   46.622509   13.544480
H   77.763031   28.948755   71.100464
H   78.681511   21.177029   68.091072
H   57.952637   36.444458   44.295021
H   68.786873   18.958231    0.424962
H   94.190269   27.004515   90.971481
H   46.120636    4.490024   99.770401
H   29.019278   75.877136   50.557655
H   47.558540   47.363853   82.540695
H   77.618309   50.454540   32.732651
H   51.459103    2.284412   91.551247
H   57.853672   37.085594   45.267799
H   56.349644   16.634172   96.286583
H   25.363218   61.507824   62.142509
H   69.176598   62.164799   39.305393
H   43.387150   70.377586   75.179337
H    5.439909   72.216003   38.564533
H   51.695099   33.976501   82.996208
H   28.895718   73.532631   22.894739
H   76.445648   39.446255   17.920240
H   96.148758   10.362783   22.363373
H   27.100580   29.991371   52.291054
H   72.367279   81.968094   60.391922
H   53.059296   25.978045   53.029610
H   22.816410   86.433655    4.905248
H   89.899063   82.586006   53.469227
H   25.656445    8.732443    1.963668
H   14.232239   66.403969   91.959641
H   84.770813   53.022141   71.105354
H   14.245032   95.995422   87.777588
H   74.550514   39.665413   68.225136
H   21.970148   19.721182   66.712234
H   37.791283   35.580139   64.873734
H   59.773392    1.480453   30.781975
H   72.198547   51.957230   97.386932
H   56.491341   54.965393   37.393009
H    3.781421   83.024841    7.737681
H   72.414886   16.213192    8.823841
H   84.767265   18.765181   80.538902
H   61.683617   31.580526   57.863262
H   74.454430   39.855759   57.047565
H   54.353409   47.653572   27.552114
H   28.950802   15.760340   28.426830
H   60.487457   47.455906   40.705772
H   98.302803   96.543793   43.105690
H   51.272976   50.634686    3.349562
H   96.186813   57.707047   14.187006
H   48.392178   41.707275   26.485569
H   92.154305   88.780739   74.906281
H   51.830048   19.779274   47.670746
H    3.785343   84.869240   85.113594
H    5.004629   53.283310   21.962919
H   89.181488   40.045624   74.284187
H   98.515327   79.252159   11.313463
H   83.853287   24.356400   98.001839
H    8.490051   84.881363   77.049637
H   31.002832   50.737232   72.849174
H   17.714172   89.477158   78.591690
H   46.721699   38.429516   65.982216
H   20.906338   64.850098   63.515129
H   64.399521   14.226479   60.840668
H   98.772110   86.129341   18.487000
H   14.443442   33.811401   23.011314
H   10.389072   45.747387   72.158401
H   67.422714   25.687244   98.892731
