100
TIME:    2.281, STEP:  2281
H   63.067535   12.841939   97.057693
H   37.820122   28.416544   21.884695
H   18.963148   38.007843   96.560295
H   81.859467   38.673729   15.133373
H   74.740341   55.589725    3.858124
H   92.646858   98.736916    4.640450
H   33.423542   15.360987   68.830025
H   40.604195   85.937469   98.759483
H   97.556602   66.984528   56.507244
H   12.507048   49.135139   97.009819
H   88.081970   58.023472   20.032351
H   68.782974   38.025269   30.564463
H   98.168556   23.703896   98.416527
H   42.139534   98.045174   30.825253
H    8.245075   66.279114   41.126938
H    9.810150   12.224595   43.698990
H   40.678452   32.843178   81.032791
H   49.888603   83.775505   20.467281
H   80.791328   74.045227   83.534317
H   31.064461   57.372608   71.633736
H   28.918854   29.136608   95.333878
H   81.062042   47.112045   25.030029
H   55.289391   76.070992   67.088135
H    7.111937   64.038727   37.667351
H   48.001823    5.270523   53.391457
H   36.199993   59.640186   75.373283
H   65.386681   47.659489   45.230312
H   40.077713   62.909084   42.169788
H   60.768951   56.042030   49.347771
H   88.457512   34.385452   64.721519
H    5.830507   26.595301   28.916534
H    9.780895   89.491188   88.100487
H   31.027821    1.593950    3.287449
H   74.478737   64.682724   75.656372
H   24.072781   86.493927   63.623863
H   70.878525   63.670002   12.798642
H   98.576965   21.001150   88.199280
H   69.711586   17.205296   83.405174
H   48.792320   31.716177   23.266207
H   48.348370   98.643181   17.498121
H   79.359596   34.450207   96.083908
H   26.617920   14.229453    9.964926
H   30.888426   77.178421   66.231255
H   33.701347   51.001160    3.758446
H   58.794842   41.893543   51.302589
H   48.659519    6.423359   92.432014
H   59.550640   48.886566   47.352173
H   56.361233   18.868376    9.713234
H   31.705740   43.536518   53.485489
H   73.726128   65.466942   24.128704
H   43.370594   49.427895   77.467346
H   15.985117   52.079876   24.318279
H   56.196617   35.234741   70.393944
H   23.871037   69.993004   32.469818
H   59.170876   58.470509   19.761244
H   96.420273   10.134727   14.976181
H   40.856785   23.729973   72.929497
H   56.208832   61.475342   54.802689
H   70.173607   35.147182   36.369522
H    8.497093    3.112257   98.733528
H    3.587501   72.493599   36.550869
H   17.955521    6.712223   92.145798
H   28.951210   51.606407   77.072678
H   99.671021   54.202568   65.214806
H   22.858181   78.664825    7.985906
H   61.219795   28.877663   81.055870
H    4.559256   27.223436   77.188736
H   22.801674   47.990356   75.247589
H   70.588280   85.888222   17.171463
H   76.595764   62.872459   96.929993
H   49.600822   40.200768   34.788990
H   85.888184   75.823074   23.625444
H   58.266312    5.480076    3.259455
H   79.992577    5.032698   67.641945
H   72.146507   31.889292   74.313095
H   79.583412   53.764275   42.447018
H   74.055603   28.844683   31.390574
H   39.145855    1.571127   40.411564
H   70.893478   46.818714   43.127708
H   87.660744   84.726273   24.410896
H   55.519535   52.879650   16.318935
H   12.468725   59.124222   96.041237
H   62.121891   45.329681   47.153812
H    7.081682    7.349703   55.085693
H   41.264145    6.205484   26.634964
H   98.791016   92.839195    0.182673
H   19.497564   37.505646   32.310287
H   92.674759   22.671982   72.025978
H    3.018921   67.169746    9.538269
H   64.668442   15.427864    5.759062
H   17.370575   96.599548   81.632278
H   47.060238   67.055962   76.984810
H   31.636761   95.980270   95.379257
H   67.695930   51.593021   80.614220
H   17.153969   45.412018   68.501732
H   82.322815    5.657618   49.632401
H   81.547470   98.582603    6.006949
H   15.240190   35.659027   19.538738
H    0.052054   46.682789   53.981064
H   80.899124   20.113739   77.992706
