100
TIME:    6.989, STEP:  6989
H   44.684402   81.096138   92.747391
H    7.457695   83.587700   18.783672
H   99.905014   76.720787   41.301830
H   82.649689   44.704193   57.073132
H   32.571213   32.956509   76.205032
H   19.637241   93.636391   70.890976
H   86.676544   33.268482   37.002056
H   70.564674   93.239655   66.487999
H   81.824913   14.329648   60.155468
H   83.865120   16.736681   81.365364
H   50.155273   47.460056   66.532753
H   89.089661   74.013138   95.444878
H   98.084282   38.949139   30.559166
H    9.027983   83.533821   89.105736
H   65.494392   45.740898   14.802280
H   20.511253    0.445381   52.893066
H   62.093300   44.238255    9.624597
H   50.524059   54.754257   57.249573
H   54.119175   71.551849   31.569469
H    4.223618   57.390842   92.176262
H   49.539551   60.441162   67.546913
H   32.422577   53.361984   24.100342
H   92.428978   37.781136   32.387970
H   69.679878   20.436983   88.009674
H   79.617867   31.897453   88.155251
H   14.653545   20.065121   33.186630
H   59.410534   51.953735   38.641117
H   42.830055   82.662605   97.790604
H   63.139961   83.188911   26.797785
H   68.982483   17.862389   38.993645
H   91.116203   48.772369   56.431572
H    7.047036   59.410007   52.257317
H   62.654034   57.133705   27.421270
H   73.403557   33.222488   77.316116
H    7.018835   30.504646   50.268784
H   80.179634   32.837662   97.453285
H   50.134636   48.583618   59.171177
H   75.123100   31.050556   15.636321
H   50.065624   29.137030   67.026306
H    4.908123   57.897282   87.914597
H   57.602814   95.994102    7.003015
H   11.219175   69.010513   36.761021
H   71.434601    5.412867    6.297529
H   33.072300   29.952719   64.082024
H   50.411301   56.140026   54.177921
H   87.909721   96.221329   11.554819
H   96.336227    4.923090   92.551735
H   56.614193   67.354416    1.017647
H   69.323189   53.620197   65.682175
H   72.474854   37.110485   94.860817
H   43.021694   94.900330   27.100758
H   44.793247   15.211411   15.252166
H   53.846447   62.533325   96.958076
H   14.844437   93.169708   40.220901
H   84.320084   71.088203   59.795162
H    2.300550    5.181973   54.704742
H   39.323757   87.881615   20.699638
H    5.640643   16.862631   33.535873
H   41.484207   34.075596   74.938866
H   97.817757   64.987106   64.826805
H    0.571635   53.549583   69.477585
H   50.864662   62.889450   79.124496
H   48.544247   30.366646   54.213745
H   22.961391   79.835129   37.388866
H    9.727366    2.643990   46.424381
H   72.002167   94.829552   59.428070
H   26.828260   89.990356    4.490493
H   97.587563   17.245714    0.317215
H    5.231690   47.601364   21.894321
H   71.978966   99.667412   87.016296
H    0.099201   19.870270   78.312599
H   97.725945   19.555328   68.339989
H   51.295563   72.604630   82.551086
H   76.351997    7.086085   87.891327
H   99.139442   38.606106   31.212269
H   90.880669   55.503162   25.658743
H    1.532852   20.884647   14.692343
H   60.336254   93.726494    0.414739
H   96.662178   32.989826   95.655830
H   56.777725   28.296074   18.812462
H   47.637024    1.586440   97.705734
H   65.744576   89.795441    2.305071
H   59.946388   23.998816   95.539825
H   30.982018   10.222790   25.080181
H   12.023161   11.718154   70.247231
H   90.437851   65.774155   27.120728
H   33.934299   95.195229   56.805870
H   68.431358   45.807407   23.112816
H    0.723594    5.036331   71.029793
H   48.417645   21.729023   74.055374
H   10.041431   50.816765   81.056686
H   95.414124   21.118900   66.691017
H   33.461750   37.224354   59.474678
H   22.726746   37.187340   98.056595
H   35.757713   23.697388   76.686340
H   71.184326   19.743830    6.457960
H    7.848675   68.764114   35.245834
H   24.786936   32.275471   38.577499
H   75.773277   66.982399   59.636234
H   73.323952   99.286514   24.467640
