100
TIME:    4.683, STEP:  4683
H    0.630744   92.566444   94.858597
H   71.142372   58.630150   73.384827
H   60.251190   10.817969   68.375206
H   82.262634   39.711418   83.472176
H   53.225845   48.120605   38.728485
H   55.404591   96.134651   42.519489
H    7.534976   77.556732   56.669704
H   51.811729   93.741394   78.216759
H   38.510857   36.042114    5.308138
H   46.865761   83.624306   91.070160
H   64.653778   54.673161   88.659180
H   77.104530   58.425209   59.587883
H   45.235153   78.399712   59.695557
H   23.206345   90.641548   13.617885
H   37.463860   51.722809   25.664288
H   13.230595    2.136652   44.311462
H   47.528175   91.715210   99.700310
H    1.210884   66.957314   37.188915
H   18.207699   74.811966   10.081827
H   66.346519    6.367285   35.173012
H   86.380867   90.009613   30.139919
H   11.344116   50.300735   20.477539
H   23.219231   56.535683   98.363159
H   83.940033   92.846893   59.273682
H   62.093048   14.773766   71.124855
H   25.198565   88.214676   50.049709
H   58.259384   47.811131   92.884621
H   37.403957   75.026321   21.566271
H   12.998553   73.970451   35.803535
H   80.560577   74.935326   55.673500
H    0.359538   41.989086   38.874886
H   61.444683   23.126411   65.735283
H    0.220819   25.851435   19.678579
H   75.969223   44.553680   74.464027
H   64.364594    4.921160    9.891167
H   79.722992   52.221470    4.704580
H   28.959970   33.035141   77.467453
H   70.433464   73.253227   52.906895
H   47.402729   79.383232   90.495071
H   22.107523   73.777077    6.482618
H   15.201927   16.869543   52.675152
H   10.739412   22.033037   22.811899
H   51.578259   91.582504   39.731819
H   80.317963   91.250549   38.614235
H   50.439617   47.123108   56.847675
H   17.670582   52.237873    2.184760
H   78.320602   79.515038   70.419258
H   56.489513   43.603348   58.335426
H    1.921349   44.603138   57.669075
H   24.094196    2.009604   56.128036
H   43.187336   17.530090    2.793108
H   32.716728   29.191603   66.632965
H    6.010864   49.162354   30.887300
H   68.241753   30.796906   38.463524
H   67.927521   68.996101   40.178539
H   99.425705    7.607661   33.206436
H   93.134216   54.420784    1.379624
H   77.349747   34.636421   92.931137
H   59.613869   36.637833   51.967270
H   49.988270   87.738815   30.414925
H   55.108063   60.789127   49.271652
H   32.705803   84.353378   83.463516
H   91.989159   87.723312   12.343102
H   64.614113   67.273453   99.993607
H   18.197981   86.820740   31.676901
H   13.661312    9.467072   23.078833
H   11.842470   10.266917   93.156845
H   56.878944   85.362625   90.077080
H   90.301743   13.295807   66.524384
H   25.264257   83.684082   91.872070
H   73.325935   76.768509    5.970937
H   87.832367   96.105118   99.488670
H    1.650491   86.666267   41.677185
H   27.117443   53.030849   24.905327
H   87.957527   35.315922   56.401333
H   36.367447    7.708664   80.822586
H   92.140884   20.654686   73.869926
H   51.996181   44.510899   73.065392
H   86.079826   39.763279   69.934303
H   69.862000   53.908504   17.476463
H    2.511043   77.729446   59.880733
H   92.695976   74.811111   95.187523
H   14.084108   85.435608   75.929581
H   72.331924   12.893305   35.697113
H   24.306250   55.961594   93.788170
H   43.513592   81.069633   66.984924
H   79.921700   62.860672   46.847092
H   31.334784   30.361826   47.042023
H   52.869492   33.429695   89.889900
H   52.299053   16.603470   91.623672
H   15.670371   26.300747   32.358196
H   24.793226   47.685661   22.759130
H   85.642967   68.033104   81.148117
H   99.856827   97.290863   42.569035
H   75.624321   30.255020   23.696449
H   80.718170   10.805332   25.566109
H   90.888115   36.428280   67.865295
H   24.055296   56.110626   81.097740
H   85.625885   57.036869   52.787407
H   30.090174   58.457745   46.612392
