100
TIME:    0.518, STEP:   518
H   82.292397   74.518105   98.671768
H   86.861092   32.829899   10.675574
H   88.664398   11.171124   17.257698
H   81.563553   11.308134   11.769427
H   90.531372   14.277505   51.659843
H   19.983841    0.649871   30.044573
H   25.822544   96.314690   30.961046
H   79.172516   33.415462   60.633972
H   40.894569   36.489883   67.482094
H   60.684456   23.823242   27.974207
H   52.071930   87.085495   89.853081
H   36.070156   49.655281   56.057060
H   10.312903   30.367813   73.643364
H   29.433460    3.480154   96.659279
H   86.802681   23.753866   25.872156
H   80.696198   66.430183   90.041489
H   82.420128   16.253159   20.517611
H   12.213748   69.510284   81.588181
H   53.330383    0.082252   90.653473
H   78.627602   94.671326   51.527031
H   33.537689    4.648188   43.183533
H   12.017121   44.783638   75.149422
H   78.827980   90.409355   17.529243
H   70.913712   42.894352   68.604660
H   11.057360   45.093220   40.383743
H   44.283817   12.175054   40.621193
H   17.410669   20.943996   10.245245
H   88.833733   80.617676   83.896683
H   22.434677   96.089287   32.685394
H   20.855795   78.019272   24.567856
H   36.478397   68.494301   68.421684
H   98.464325   38.199623   51.310219
H    6.844486   30.582418   44.462486
H   99.988472   26.250977   49.928398
H   67.896126   19.763504   56.269920
H   17.593208   25.177355   18.861967
H   29.482281   85.565285   49.281628
H   42.579926   49.473339   58.994045
H   27.432491   69.450218   92.478592
H   14.403976   63.690777   78.789787
H   99.843124   73.953621   54.545322
H   85.066277   35.105995   27.136526
H   15.702739   66.606232   38.888802
H   46.281265   21.452543   31.379181
H   11.723175   11.454265    0.433675
H   71.335747   72.941948   85.349632
H   41.549671   53.685139   32.049507
H   56.267078    0.716634    0.628871
H   80.171013   89.548752   23.810354
H   36.753902   38.633686   47.434563
H   43.505100   19.634085   58.878590
H   30.306032   15.672081   40.056618
H   19.624376   25.012268   72.786415
H   64.693451   98.750435   54.674152
H   99.520920    3.915031    4.801634
H   94.214371   11.987551   74.992859
H   29.090752   74.600227    5.253515
H   87.487488   27.968254    0.212012
H   31.130417   60.655426   71.717209
H   24.836273   67.604034   48.876427
H   92.376175   54.480309   74.007660
H   80.526306   23.123886   71.918274
H    9.368069   71.829750   98.021095
H   78.609993   44.612274   13.075796
H   52.883568   19.472038   43.801697
H   69.523811   16.521778   76.814064
H   46.008812   66.268890   92.070786
H   44.584053   47.162460   90.965996
H   82.719505   12.566139   27.744198
H   40.879616   74.198387    0.641488
H    5.582835   60.159565   55.934818
H   31.255888   34.334206   94.546883
H   73.217117   92.684883   48.466984
H   18.789368   16.599298   72.422325
H   87.146652   29.380751   40.666187
H   37.904964   40.771675   61.073589
H   13.985652   81.648064    0.200068
H   56.316910   16.849621   43.047932
H   86.381523   51.985203   23.464340
H   74.121811   80.743568   76.295044
H   21.018688   34.640606   10.948503
H   80.189461   47.610489   43.464371
H   50.570889   15.903388   79.236847
H   85.803436   56.487522   16.116554
H   27.107634   16.481995   97.538277
H   39.370815   28.080849   77.754692
H    1.750768   65.690102   48.243374
H   64.293945   63.821663   90.355141
H   66.432808   65.330711   23.962555
H   20.537994   87.971512   42.730267
H   45.221256    1.402841   44.400951
H   16.613710   34.464195   43.393410
H   18.519684   43.151535   58.988762
H   97.293861   44.653564   61.743412
H   47.636356    3.329545   27.989124
H   36.706284   75.275993   40.693672
H   21.485941   97.407524    7.398200
H    8.767077   20.648132   47.747665
H   84.035820   39.083187    1.662102
H   71.411026   65.399803   47.795395
