100
TIME:    3.798, STEP:  3798
H   60.478912   73.725403   95.668839
H   95.621239   10.665545   17.576338
H   45.038902   47.147026   78.759804
H   82.114090   76.172295   31.981321
H   61.152710   77.183952   62.725143
H   69.128914   97.093437   54.875298
H   53.916042   17.796185   87.461479
H   21.370987   17.177685   59.475109
H   60.265846   21.131302   61.017712
H   71.051476   70.917015   56.417343
H   46.974319   19.063038   73.906288
H   10.880249   14.064552   22.583048
H    1.672276   31.923248   47.638367
H   67.026237   93.369362   46.270184
H   26.699486   30.774330   68.207558
H   48.815491   79.542046   17.774103
H   18.694710   33.178806   19.135275
H   82.300255   10.003922   67.873718
H    4.423681   37.684608   63.453846
H   90.194633   25.161516   74.918144
H   38.898010   78.114746   54.157097
H   26.498306   49.125885   95.843521
H   35.035255   63.733330   23.685307
H   66.166145   82.232727   25.000515
H   93.746490   84.958939   64.588905
H   29.241850   14.442382   33.184372
H   34.572819   84.599075   75.329384
H   12.078002   33.717499   92.312492
H   93.754257   93.676529   77.639015
H   46.624954   96.838860   85.318970
H   65.532600   62.628574    8.893272
H    5.565294   47.575455   47.664162
H   37.883381   90.602928   39.950790
H   38.576569   25.658607   11.747730
H   86.362656   71.820396   55.998817
H    2.782687   82.838531    7.576843
H   44.076462   65.444809    7.732856
H    7.014890   89.444557   90.456154
H   84.757874   98.666985   76.257957
H    5.464649   56.627922   36.852894
H   75.685532   86.502548   31.824934
H   90.278519   82.314880   81.234787
H   43.955235   86.275421   75.806572
H   36.830505   76.423126   52.081741
H   27.207624   82.041260   81.115662
H   29.088238   35.357838   98.589272
H   71.406540   31.386639   61.923576
H   56.442249   34.488129    3.576656
H   76.048080   17.899628   92.969818
H    5.532908   88.545082   18.027752
H   43.254856    2.970750   93.462326
H   89.708908   11.312893   24.730076
H   87.657051   44.030823   82.287910
H   88.740868   45.239464   99.412628
H   38.391251   91.434509   32.650043
H   98.318375    8.539083   63.333923
H   37.028225   79.956902   17.208990
H   43.249016   18.213341   15.727179
H   89.817299   99.242844   19.908230
H    8.390840   19.714628   55.586433
H   99.280952    1.948636   18.274387
H   64.116173   92.590836   23.506386
H   31.906137   48.114677   73.030205
H    3.840811   62.454681   24.024021
H   83.072075   57.504879   49.260517
H   68.028023   53.462959   70.751205
H   82.847610   79.668274   50.430096
H   18.012123   34.749527   47.768963
H   46.194862   76.886276   22.028164
H    7.334284   39.171036   93.735626
H    1.427904   36.984322   16.588318
H   60.803688   25.477081   34.693287
H   59.354904   30.441631   64.370598
H   46.603756    9.034046   77.490013
H   45.287762   34.053295   89.311806
H   15.443002   50.989624   40.372219
H   11.788378   97.360886   58.218754
H   10.417277    2.378098   24.188814
H   43.639908   42.362804   60.060165
H   13.264305    2.105956   93.720207
H   85.198044   68.573715    6.986764
H   26.292831   69.031387   69.191040
H   58.098537   70.653137   91.640717
H   11.446951   37.162422   16.528748
H   67.398209   11.316652   79.578964
H   63.884418   48.562233    5.527805
H   20.814566   27.207390    4.646614
H   17.091410    1.217347   56.245018
H   34.504013   82.705894   97.128059
H   30.544050   53.017082   59.984589
H   79.452393   78.511955   13.668618
H   59.309486   81.133354    5.895338
H   28.912727   41.476410   12.709696
H   14.318419   43.609787   82.897850
H   90.924385    9.527279    3.361709
H    7.620860   45.751961   71.277245
H   61.134918   85.640160   18.762693
H   20.807577   48.575378   95.263466
H   27.785301   53.221981   26.914490
H   75.118599   81.169868   31.866278
