100
TIME:    4.567, STEP:  4567
H    8.475113    3.204227   94.964798
H   74.346107   52.343925   66.071106
H   58.257263    2.472759   69.736351
H   82.243164   44.490471   89.830086
H   54.264847   38.822693   41.873810
H   57.203815   96.260323   31.031214
H   13.614338   69.724396   47.598354
H   60.929100   83.705383   88.866966
H   41.362358   47.195007   12.610132
H   50.035866   81.958717   86.528290
H   75.443817   50.005619   99.833313
H   81.531349   52.610695   67.845024
H   52.637375   85.414299   71.221924
H   28.949615   90.999092    4.789912
H   36.053154   62.084503   31.240292
H   17.895039   12.282625   53.940369
H   56.856178   84.042175   89.140373
H   98.730736   72.601906   41.210400
H   16.400951   69.946182    3.970762
H   69.472374    8.830709   27.275187
H   93.264473    1.557335   33.288162
H    0.223083   50.146744   30.356018
H   24.767998   57.479103    1.682061
H   94.717682   91.455658   67.888855
H   66.241974   23.973442   70.268166
H   25.727358   91.643204   60.957455
H   68.262276   52.633549   90.583595
H   47.191280   69.611832   17.731524
H   10.476054   63.445919   41.287056
H   76.112518   77.806297   46.451698
H   95.794609   31.587547   48.052437
H   54.120342   26.331032   76.473991
H   92.050392   34.338356    9.228383
H   71.068039   55.184418   79.351051
H   67.247955   13.690058    2.827903
H   69.639191   43.135960    5.069536
H   17.834070   37.283188   68.327072
H   75.228447   75.375481   44.721439
H   52.299488   81.910820    1.736408
H   33.033371   84.636147   97.356079
H   23.129402   12.889653   49.942242
H   21.165157   16.826967   17.362894
H   50.579082   90.886887   31.353399
H   87.725494   89.307068   27.272135
H   60.501293   51.699493   46.921406
H   19.167133   50.025349    1.713199
H   77.414352   73.206688   69.305916
H   56.483318   42.408585   51.157997
H   98.530441   54.209919   62.296791
H   21.661304    0.244010   64.240944
H   43.196186   28.729446    1.570246
H   27.079603   39.955860   74.247589
H    3.604642   48.489746   37.624805
H   70.928642   32.689941   33.344627
H   77.163483   58.829556   39.191753
H   99.280563    7.729682   37.155350
H   85.779785   57.767891   90.347069
H   85.987442   45.591072   95.918930
H   50.465523   31.736626   60.873123
H   57.642719   78.823227   33.714241
H   47.790802   66.183617   58.315567
H   36.822868   85.433090   88.711624
H   84.114342   95.638840   20.297569
H   56.648209   66.641556    3.143353
H   13.593717   96.085022   20.874029
H   20.786968   15.233574   16.220007
H   21.149675    6.256669   87.556503
H   64.891823   78.728592   84.531609
H   84.520859   21.630829   73.799164
H   22.914114   77.850098   92.116333
H   77.009346   84.661026    7.362504
H   97.397552   99.954910   90.996117
H    9.214151   92.404671   44.651703
H   29.671581   60.372005   31.797783
H   82.364265   35.150425   47.607876
H   33.624802    0.274029   88.628372
H   81.609268   30.708839   71.818474
H   46.546291   52.096317   66.659691
H   80.516655   40.104008   68.640419
H   75.550842   60.226589   27.469994
H    0.241121   76.529373   52.947567
H   83.992790   74.053543    4.887434
H    6.746511   83.495667   64.882889
H   64.350906    2.966813   46.291565
H   29.954824   63.217789    5.033023
H   46.183666   76.809196   58.929565
H   72.174324   71.294815   41.315781
H   29.467855   39.649040   48.248291
H   50.462265   39.888496   90.838631
H   62.555431   21.376328   87.476517
H   10.923179   20.037090   29.908487
H   16.209517   38.962120   20.548819
H   78.207115   64.551476   72.177658
H   88.645523   90.255035   34.748203
H   77.629753   40.645920   21.031242
H   71.137054   15.385921   31.557625
H    0.095756   29.771236   74.536499
H   23.629606   55.122955   82.954491
H   91.151886   56.536839   62.503929
H   22.885309   61.434032   57.787411
