100
TIME:    0.251, STEP:   251
H    0.348776   99.003426   98.916214
H   94.288170   18.353558   93.833557
H   84.076965   91.962074   20.392715
H   81.518738   22.309214   26.404749
H   92.922867   92.876282   58.899513
H   24.124142    0.940468    3.602428
H   39.815479   78.286812   10.081157
H    0.158188   10.317245   85.148094
H   47.457939   62.160767   84.287743
H   67.981163   19.990536   17.518038
H   76.907623   76.342102   15.572224
H   46.261509   36.271873   75.062721
H   27.296623   46.521606    0.182021
H   42.653904    4.303376   76.341759
H   83.555626   47.601944   38.707111
H   91.431442   89.782906   12.204487
H    3.886424   98.596138   96.208015
H    6.508419   82.494431   90.844528
H   49.172768   88.882553   76.585617
H   85.855049    0.269186   33.311745
H   49.381851   31.229599   50.429314
H   86.415260   44.431229   97.882881
H   82.392815   92.580849   25.169193
H   95.720886   39.692112   88.433289
H   20.606024   66.268120   38.411880
H   45.507236   20.131344   65.646080
H   40.434780   32.042858    4.947029
H   11.362549   68.155014   75.072189
H   16.629089   71.864708   45.306946
H   10.618340   84.627457    3.342778
H   25.975374   44.550835   89.549950
H   81.605713   45.575775   76.027763
H   88.037903   50.117638   20.409018
H   88.707298   50.720001   61.176979
H   74.532829   39.946579   40.012238
H   94.378258    4.202887   19.780676
H    3.873569   95.343117   28.242992
H   53.614616   54.360218   40.153385
H   39.436428   75.149879   18.069176
H   39.552052   88.685387   57.783142
H   18.088985   64.790977   48.252880
H    9.062729   23.122042   14.592439
H   13.403420   65.005112   19.603409
H   63.331360   16.978167    5.273388
H   34.883270   21.988640   77.586121
H   74.745766   67.922661   84.302589
H   38.730396   39.281170   29.768011
H   56.252819   97.966858   84.108414
H   72.365044   11.661945   34.461296
H   31.154058   34.569775   66.108414
H   43.525471   45.411385   56.063389
H   17.331053   40.448029   57.585419
H   14.085817   23.464111   88.292427
H   70.873856    3.106747   42.891865
H   20.777115   80.509140    2.536009
H   93.880295   12.268253   84.082169
H   12.164803   82.304344   79.859581
H    7.369359   53.182838    7.089600
H   10.073448   49.374252   92.213989
H   42.454704   47.081131   56.470543
H   75.533859   66.896591   94.826294
H   90.002655   25.609085   83.997971
H   91.257927   90.036888   16.338593
H   60.276146   43.159859   20.325651
H   42.284805   40.797298   18.935984
H   85.926125   29.795185   61.026943
H   67.430412   57.038525   79.180344
H   63.027489   31.892738   78.201851
H   69.413506   31.751060   44.490772
H   35.471252   60.769676    1.202950
H   14.061975   78.326393   59.137058
H   53.270306   43.195366   74.999367
H   90.625732    5.892193   55.313503
H   24.666252   33.495686   88.290932
H   74.272507   29.000841   20.425491
H   31.592154   23.658930   79.040024
H   89.744110    4.789117   95.474182
H   43.772766   34.308277   28.301739
H   73.584785   52.765903   20.487194
H   87.215958   95.284019   99.297394
H   15.793680   31.878325   94.990646
H   60.156734   45.866776   65.792297
H   33.677647   11.446836   53.806335
H   67.437408   33.639988   40.504097
H   40.108459   33.183754   23.420712
H   45.517460   18.272604   59.213749
H   83.918434   85.103172   35.511822
H   59.995773   85.198448   93.129601
H   60.892036   80.197090   26.147289
H   44.143806   98.959351   33.184658
H   34.294529   86.984726   38.762402
H   96.858086   14.383867   38.306900
H    1.389108   35.152046   38.333092
H   71.488533   28.457216   43.742016
H   52.252308   27.246479   21.854553
H   14.653198   85.819756   54.484489
H   42.678886   82.084846   22.753746
H    7.786803   18.374786   52.019356
H   96.755150   37.932255   24.026928
H   54.829449   72.256508   73.511093
