100
TIME:    1.308, STEP:  1308
H   28.867281    2.071128   97.948502
H   64.885841   75.663719   60.508480
H    2.238411   68.006844    7.981802
H   81.696152   78.760094   68.468742
H   83.455414   77.599495   30.239098
H    7.733496   99.791039    8.280920
H   84.417854   49.660862   92.740074
H   17.080078    1.761335   88.097679
H   21.474861   60.534531   17.752771
H   39.094948   35.164299   58.911934
H   78.588058   18.872456   13.756639
H    5.915966   89.254128   99.824715
H   60.059219   82.571465   95.124657
H   90.317406    1.044477   56.780460
H   96.410072   53.189373   87.897995
H   48.932739   97.328545   24.465317
H   18.905888   68.497116   92.445992
H   29.095657   31.092773   54.200485
H   65.632744   33.225769   32.272907
H   57.276489   78.036972    5.387344
H   86.658066   26.001755   21.743263
H   87.767326   45.826347    7.880777
H   68.280342   83.984337   94.925888
H   97.514122   52.369144    9.930286
H   82.802727   82.438545   46.213028
H   40.661457   88.634872   66.573013
H   49.288918   88.105179   25.922049
H   22.176445   17.492718   10.007583
H   39.612259   67.763977   95.343163
H   51.147503   58.466965   87.371147
H   67.554756   39.339539    5.908575
H   48.345036   16.375053   78.175972
H   62.492710   72.782860   15.631925
H   33.367943   53.852303   16.647470
H   48.259438   60.045387    4.377700
H   86.280060   87.233963   16.143690
H    5.253611   56.634621   11.530509
H    9.930185   35.014034   14.744011
H   91.917221   52.586052   16.760872
H   39.994446   89.732552   40.944920
H   45.853302    1.063921   73.160446
H   14.065605   70.563026   64.252151
H   22.507406   71.343628   95.951881
H   95.835213   34.691948    8.623694
H   43.196037   80.283096   68.039261
H   61.212490   87.864876   88.482765
H   49.891346   96.299057   38.799995
H   56.309269    8.850496   49.509548
H    3.266548   24.120911   92.297043
H   53.322735   50.657993   92.182091
H   43.444828   43.364861   67.208206
H   68.699303   42.366505   88.193832
H   36.012390   29.592957   26.902664
H   46.401058   85.864235   89.535599
H   36.630264   73.171860   11.505411
H   95.202835   11.157301   48.099396
H   79.172760   51.805275   80.389076
H   28.661633   53.363365   79.864090
H   93.436653   94.034180   11.067085
H   72.703308   28.325071   26.406944
H   42.210705   17.744392   12.414417
H   52.487671   15.770628   36.172157
H   62.955009   17.957657   43.824318
H   32.856949   48.909683   91.627266
H   84.239311   56.377132   17.372332
H   20.992622   77.248543   23.524519
H   82.625046   93.584259   30.213310
H   90.013145   92.342514   28.732565
H   22.092209   55.801788   78.197517
H   56.881889   13.931271   98.978851
H   80.497017    6.404211   46.460026
H   66.115494    8.115337   52.387970
H   21.707878   53.605984   28.209492
H    1.402049   66.608154   25.470268
H   25.236214   30.504827    0.552687
H   56.583324   91.403099    7.918384
H   85.713036   13.177996   14.178623
H   93.432541   65.195259   86.675858
H   24.248232   49.670750   32.273216
H   35.378830   37.717575    8.235829
H   36.478512   42.813519   58.164577
H   39.463558   52.769791   77.403152
H    0.559006   29.087946   54.480381
H   40.148975   24.088846   43.958656
H   88.640289   67.069275   20.956398
H   21.186687   57.101513   32.614876
H   54.513084    8.250679   85.913513
H   77.011383    0.573134   82.146065
H   82.826851   21.344778   17.498360
H   50.693680   55.462265   70.973824
H   77.551277   44.059536   61.084301
H   75.065712   93.880547   58.443382
H   69.207817   66.821152   20.105387
H   73.651497   92.572411   15.010789
H   33.978672   32.567024   46.142448
H    1.957007   44.079094   99.888824
H   58.779373   42.743786   61.964844
H   11.667678   27.374512   35.108582
H   46.401848   42.488567   35.485943
H   20.472641   45.106564   71.706734
