100
TIME:    7.566, STEP:  7566
H    5.664845   28.182327   92.219131
H   91.522720   14.853553   55.166729
H    9.823565   18.232220   34.526905
H   82.746536   20.931499   25.444065
H   27.401117   79.205605   60.559753
H   10.688302   93.011284   28.032120
H   56.434803   72.231079   82.124207
H   25.213615   43.156643   13.508254
H   67.641151   58.853348   23.833736
H   68.105385   25.021547    3.957580
H   96.484146   70.677048   10.954443
H   67.070053    2.935231   54.372719
H   61.291023    4.026421   73.217857
H   80.458336   81.755348   33.016171
H   72.502632   94.200424   87.053253
H   97.310059   49.979004    4.996536
H   15.694519   82.402710   62.151180
H   62.863316   26.677277   37.250557
H   63.103985   95.754929   61.966389
H   88.676376   45.139629   31.461039
H   15.299545    2.997411   51.887432
H   87.740128   54.127960   74.963501
H   84.725197   33.088432   15.877727
H   16.067083   27.339571   45.157104
H   58.980537   86.138321   92.416542
H   11.933010    3.057373   78.888680
H    9.653902   27.966734   50.091137
H   94.144951    9.594993   16.863630
H   75.686119   35.538380   99.524010
H   91.107742    3.580822   84.864159
H   13.824519    0.514043   10.781166
H   43.479061   43.469784   98.841576
H    3.295191   14.917875   79.401985
H   97.782722   80.344002   53.007385
H   92.658699   86.817680   85.373337
H   30.336792   78.030243   95.639595
H    5.477222   27.452772    4.636596
H   51.274544   20.489773   56.351906
H   25.708469   16.566660   11.110886
H   50.560364    3.879268   33.311356
H   18.169031   15.791692   20.596159
H   62.592674   71.273224   66.216209
H   76.400238    8.874065   47.973042
H   96.229782   39.637474   20.499065
H    0.361745   33.376453    3.552715
H   80.461266    7.225569   13.898970
H    0.844551   36.303535   98.089653
H   56.649410   73.297333   36.718731
H   86.192268    5.834718   42.663597
H   84.589600   45.892796   54.518379
H   42.982075   39.195389   33.182770
H   72.836075   61.671024   77.375946
H   65.815254   65.878967   63.448830
H    1.483879   83.757889   65.682999
H   38.379135   21.652710   64.702942
H    3.019203    4.575026   35.062302
H   75.902740   71.232643   75.576973
H   62.675705   62.372078   18.672205
H   86.987404   58.459164   30.644257
H   59.739563    9.335317   48.415550
H   36.970135   26.717979   24.491371
H   30.385811   57.518814   53.017830
H   87.716408   90.992462   14.647125
H   62.584736   82.978271   21.721577
H   32.629669   56.561298    0.157162
H   36.555969   66.145073   93.544815
H   80.533936    9.939516   32.349468
H   57.730400   50.245293   27.901154
H   33.990646    6.141815   85.706360
H   83.686287   28.665171   85.796234
H   81.777397   80.611359   71.392403
H   50.225239    0.378337   10.631463
H   13.673624   44.066746   67.759827
H   63.647488   70.566284   53.607300
H   26.932562   39.455723   74.960938
H    4.519762   92.482323   86.833504
H   53.937214   70.944771   24.925165
H   87.444763   55.999172   32.281544
H   24.330809   31.294994    2.092901
H   28.480911   96.863091   69.103554
H   58.931923    7.556100   32.192383
H    9.043641   93.537277   54.032017
H   96.440788   33.648350   50.491333
H   70.677101   59.598263   72.379356
H   83.928574   75.621544   14.314040
H   77.160934   86.966156   67.189194
H   72.470818   53.242638   84.319374
H   77.711113   99.634705   17.130280
H   12.699338   72.909569   66.310677
H   97.402283   97.988541   94.683899
H   33.654621   81.973396   93.241867
H   38.106281   64.514847   77.687614
H   70.448700   54.538052    4.094974
H   78.490425   72.193321   36.962490
H   25.781044   72.014084   89.945648
H   18.842209   96.959534   76.655098
H   62.048790    1.877106    2.060822
H   23.673189   60.823483   26.994463
H   48.286186   69.474022   11.304913
H    9.165472   84.477646   68.884277
