100
TIME:    7.876, STEP:  7876
H   84.700676   99.754601   91.935318
H   82.961014   31.652905   74.713089
H   15.152163   40.534500   30.887360
H   82.798569    8.158710    8.451653
H   24.623293    4.053427   52.154144
H    5.880620   92.675438   58.733490
H   40.188847   93.162323    6.366627
H    0.848225   69.975182   85.045647
H   60.020760   29.048084    4.320322
H   59.638283   29.472689   16.096420
H   67.648697   83.150650   81.092987
H   55.238007   18.473522   32.306221
H   41.523415   85.262009   42.411564
H   65.108757   80.799843   56.608166
H   76.267891   66.509689   72.143585
H   84.845917   22.865356   79.263947
H   90.765877    2.907948   90.371704
H   69.490768   11.592764   26.505245
H   67.933105    8.759732   78.299561
H   80.322800   38.557522   52.567299
H   96.903725   72.137207   43.474728
H   17.460131   54.539490   48.564117
H   80.586250   30.567896    7.007964
H   87.264069   31.048067   22.133244
H   47.892891   61.555107   94.705971
H   10.471371   93.918991   49.716225
H   82.922958   15.080377   56.242794
H   67.986809   24.064749   27.110479
H   82.426689   63.664295   84.869774
H    2.994613   95.908127    9.508251
H   26.025057   28.312122   86.255028
H   63.052731   34.905712   70.143303
H   25.131433   92.237129    7.329236
H   10.881213   51.934273   39.947235
H   84.943703   63.346306    4.233172
H   57.284809    2.310610   94.665169
H   35.210079   16.099051   29.063200
H   38.462730   14.815992   78.228371
H   12.622457    9.813082   81.069603
H   21.362621   74.859100   57.702759
H   96.983261   26.427603   27.899626
H   36.467644   72.488892   82.043541
H   79.068085   10.733635   70.364235
H   76.433792   44.840721   50.808430
H   73.470436   21.146458   30.080997
H   76.459496   13.137206   15.158392
H    3.267904   53.162056    1.065646
H   56.668331   76.490234   55.899792
H   95.255379   80.159554   30.296589
H   91.098389   50.611195   32.842125
H   42.960789    9.266359   36.451355
H   87.901840   32.904163   57.026520
H   72.243629   67.676453   45.445595
H   94.303894   78.701279   79.362808
H   13.695946   48.820305   67.337677
H    3.405308    4.248936   24.509171
H   95.556824   62.287788    5.060548
H   39.592209   33.096718   10.686797
H   11.437454   71.558159    6.845314
H   39.283707   33.163822   39.598412
H   56.524883   12.301590    0.321908
H   19.383308   54.633377   38.990349
H    8.761760   69.838898   93.389496
H   83.870903   84.666962   13.304332
H   44.935349   31.800947   29.026903
H   17.512985   50.734001   11.874810
H   55.662415   20.656689   47.315899
H   36.316673   67.974174   42.720947
H   49.441925   83.867210   66.265137
H   89.982216   44.234707   85.138733
H   71.933800   59.519287   67.674446
H   24.698242   90.085350   33.354069
H   93.460770   28.733469   59.811672
H   56.824139   50.946888   35.187805
H   41.865479   39.912189   98.465424
H   11.848794   12.350117   65.973213
H   82.091515   44.113182   30.422869
H    2.008924   35.730160   49.402592
H   39.195541   30.384426    5.552469
H   13.279046   79.976189   42.396706
H   65.000801   10.763192   50.720673
H   32.305511   95.547623   28.098381
H   16.048822   38.832676   80.013748
H   92.005684   86.125366   44.065899
H   68.834427   56.228573   84.263206
H   70.027756   98.351807   88.716446
H   93.175011   30.703117   99.101326
H   82.696770   74.829407   13.916092
H   19.133625   55.648979   63.775276
H   69.995361   85.235855    5.766037
H   46.341084   98.713661   99.788498
H   61.043140   87.830124   83.595665
H   90.320374   63.840038   28.067751
H    8.451258   91.000694   57.865353
H   20.420517   44.245979   97.069366
H   44.446915   84.717712   60.643288
H   37.442162   19.666767   84.232536
H   23.074816   76.163109   20.770670
H   33.518425   70.812675   85.339699
H   28.420061   76.521408   39.020390
