100
TIME:    9.966, STEP:  9966
H   43.361725    8.092391   90.021866
H   25.239475   44.907825    6.492515
H   51.077229   90.898277    6.353741
H   83.149368   22.051683   93.891739
H    5.895380   71.575836   95.487465
H   73.477295   90.411186   65.713066
H   30.652424   34.290451   69.807358
H   36.578354   50.786869   93.148308
H    8.644569   28.101635   72.764275
H    2.549538   59.481998   97.929939
H   73.241913   67.244751   79.770866
H   75.467903   23.233837   83.538551
H    8.250851   58.759171   34.714424
H   61.624741   74.357887   15.656612
H    1.653273   79.820587   71.633568
H    0.810649   40.066208    5.775433
H   22.700691   41.143753   80.632645
H   14.184356    9.893330   54.055000
H    0.493670   96.437775   88.421768
H   24.014851   94.173553   94.864250
H   72.879654   64.072334   86.747498
H   17.830475   57.313995   70.581329
H   52.681366   13.573265   47.245575
H   93.072647   56.050507   66.913681
H   73.143295   95.806168   10.136108
H    0.613660   32.305832   53.037388
H    2.699257   28.201494   97.703903
H   91.639717   21.618900   96.194054
H   27.872311   53.285343   86.074295
H   83.134117   44.181137   75.657143
H    8.279588   15.726591   20.900894
H   95.016769   77.160156   76.661552
H   72.350014   39.321991   95.612938
H   99.188705   60.398247   51.899300
H   32.929695    5.103926   31.392775
H   38.964283   66.015717   88.095650
H   35.668251   39.559334   93.747269
H   52.077419   76.574104   25.714165
H   24.403294   64.274620   78.533180
H   24.507977   79.199493   22.138418
H   54.145737   98.141815   77.139122
H   60.333183   80.690811   88.730705
H   97.054535   23.273045   21.327450
H   42.989834   79.928139   55.154842
H   92.149017   38.650242    8.912940
H   49.488403   52.997021   23.649336
H   19.608532   66.827881   21.135862
H   56.795895   98.016571   85.216797
H   56.343674    7.071187   46.893524
H   34.968964   82.431572   86.710426
H   46.774494    7.787460   52.406174
H   89.476303   38.968262   19.829805
H   15.587549   79.794983   24.062229
H   45.899521   44.600868   71.588448
H   47.287392   31.977137   85.100891
H    6.008400    2.050459   53.360626
H   28.053215    1.981427    3.836922
H   83.967239   35.721687   56.854149
H   76.278877   59.872070   46.395489
H    1.366600   93.807465   80.153847
H   88.367065   15.106367   37.375500
H   45.205101   35.179947   44.426102
H   50.683041   27.270601   50.095047
H   27.387104   96.052002   56.565308
H   27.889877   64.876015   23.658777
H   89.123016   46.834160   35.452557
H   87.977272   92.913086   48.221020
H   91.945839   87.503181   42.635040
H   53.607445   33.693130   35.182835
H   32.429245   49.209576   80.705902
H    5.557483   17.308643   42.608223
H   52.590576   20.690819   86.549286
H   57.190735   25.351084    6.219067
H   10.821560   18.672546   11.008039
H   42.542427   42.989658   56.930393
H   61.263359   46.300381   25.344296
H   71.908150   63.218723   67.494164
H    0.192813   99.077690   64.836815
H   39.418846   24.245434   28.878855
H   10.783881   66.123970   62.341438
H    5.916229   32.385204   75.637688
H   89.136406    9.110772   53.247543
H   48.245293   73.785072   79.054749
H   35.794086   64.971512   53.176590
H   67.070663   25.487106   81.662415
H   21.922375   75.123100   33.852619
H   32.761524   78.742455   98.760414
H   16.308231    7.588429   92.251892
H   62.507572   39.280876   46.681770
H   85.210724   99.246201   80.476227
H   31.873098   11.565688   43.925804
H   15.681978   45.017624   23.418291
H   24.293186   26.544226   89.690666
H    6.479700   17.498913    4.871322
H   84.284073   57.036919   45.093025
H   17.072372    2.186476   52.692108
H   71.548180   39.605911   64.034256
H   19.040621   79.577667   78.806236
H   33.955620   79.837791   10.280010
H   58.236763   22.891838   37.683674
