200
TIME:    0.516, STEP:   516
H   17.952116   61.559010   20.059006
H   30.424284   36.907448    1.101713
H   12.352939   81.218628   58.942680
H   27.146072   80.199715   37.282364
H   12.279780   90.724426   49.690285
H   80.639832   45.323921   57.380119
H    7.357970   55.108299   54.993557
H    9.073632    0.804653   15.275521
H   98.637184   83.368500   40.986401
H    1.145516   71.032799   85.185921
H   21.813730    0.490157    1.683527
H   31.919098   49.389679   25.893045
H   17.948254   96.167732   49.979790
H   91.358437   54.371395   55.565487
H    6.296567   74.069252   42.299500
H   21.255512   14.594463   48.369102
H   97.191238   20.644943    2.031818
H   30.008308   96.435135   38.606686
H   74.208435   19.709782   46.546806
H   90.934334   75.914391   26.771595
H   61.397362   90.535934   13.195726
H   83.884560   59.363991   59.938736
H   86.740288   60.534714   42.513741
H   14.454217   90.575508   90.720634
H   15.242919   23.804312   35.561932
H   18.432623   74.585068   97.840919
H    4.240616   64.334785   60.178970
H    0.844342   81.515022    1.457506
H   22.693180   48.140572   36.722229
H   80.577286   28.158030   89.078598
H   13.001152   62.980137   16.532253
H   26.907085   69.975082    0.398282
H   20.454506   14.924438   76.550400
H   87.291969   63.879036   43.114487
H   34.743504   78.396469   32.119694
H   24.045647   43.629028   82.641365
H   94.186157   68.471939   88.026955
H   19.263008   51.894733    2.757943
H   42.855438   36.517452   50.566628
H   87.435867   38.553509   52.915131
H   80.586433   92.330704   10.685355
H   27.076982   37.319336   31.647263
H   71.732376   81.441628   60.576786
H   36.666397   76.638863   28.619390
H   38.207260   84.715897   54.323936
H   37.175804    6.655647   45.689571
H   85.175262   12.690281    2.230479
H   83.396492   65.546394   37.725540
H   97.754227   18.278347   61.365322
H   52.240551   19.047033   94.035919
H   71.642624   67.002739   16.930607
H   10.587578   40.448467   69.475624
H   59.620209   86.526543   11.536921
H   18.298874   88.008102   85.790352
H   65.516403   70.246780   81.847237
H    1.767530   65.550713   87.685944
H    4.642816   17.789894   46.693958
H   70.424057   64.995499    0.321973
H   22.357286   79.809128   13.801858
H   36.719822   94.439369   61.892090
H   49.525642    9.991571   34.172676
H   94.896599   17.078707   51.181770
H   79.051041   30.924006   75.573456
H   30.813255   65.546104    9.829781
H   75.785110   80.193634   29.215696
H   27.912977   27.283941   37.824356
H   75.865578   17.340218   91.537392
H   95.795830   92.077431   92.735878
H   26.339846    9.582992   58.486427
H   43.648205   46.440487   50.967854
H   58.344086   81.365784   80.663971
H   24.383579   16.567125   42.832836
H   86.253555   30.434643   90.253784
H   16.857046    2.898022   68.607582
H   82.505753    5.339377   54.635208
H   60.289986    9.332597   61.073929
H   94.261017   40.225021   68.241585
H   16.332531   10.995749   38.529732
H   13.628902   41.989834   28.825573
H   64.117310   89.127670   81.172516
H   55.082180   25.437368   97.036163
H   38.772503   63.627003   79.324883
H    9.922904   16.693789   82.204308
H   15.673723   70.884682    2.847027
H   29.079803    2.242426   49.960526
H   32.443054   76.117523   22.037384
H   48.225227    3.359232    2.404078
H   73.036263    8.271952   21.852306
H   74.133499   72.729019   78.164795
H   22.061729   98.418221   51.829067
H   29.673088   37.275410   79.526855
H   82.132912   90.957031    4.390098
H   60.370914   13.749329   87.869202
H   47.651539   84.517845   76.683128
H   32.118492   53.192772   79.434868
H   57.842262   33.880089   16.084700
H   83.049553    4.732878   10.215818
H   99.307335   32.727432   51.206760
H   30.763939   67.013229   53.859352
H   72.003349    2.412188   27.317789
H   22.180326   88.057495   81.936256
H    0.835488   80.832199   64.342171
H   28.900618   27.083330   34.359661
H   35.138084   68.449066    1.122661
H   24.972872   23.845642   34.035763
H   98.349648   13.259996   30.969019
H   78.732674   33.523830   54.974747
H   63.125019   44.871376    8.069130
H   79.810692   36.605751   12.478596
H   13.232837   24.212198    6.888079
H   50.825844   93.668373    0.990037
H   97.076324   70.285828   93.654991
H   52.300385   83.477448   87.931984
H   62.289238   13.447128   67.836670
H   54.639870   93.461548   17.095329
H    2.774779   97.723274   91.385468
H   21.227253   12.329066   87.397629
H   39.370815   40.581486   28.461540
H   29.344053   68.075821   69.898849
H   78.066292   52.183407   59.638641
H   43.435188   23.593510   78.475792
H    6.380256   20.941792   56.306740
H   38.890450   10.182055   32.216702
H    0.010865   57.386879    5.778739
H   68.657768    2.118436   83.684868
H   57.833981   69.903748   20.202353
H   88.526222   50.478622   60.395645
H   69.391594   89.734642   37.333599
H   95.864235   42.493114   78.600502
H   81.122787   22.841171   71.203667
H   59.750282   75.330963   13.958858
H   71.106163   88.788803   15.835744
H   91.536507   96.022865   99.428223
H   87.387146   20.079388   53.104198
H   18.060764   96.379608   43.734177
H   55.007034    1.272630   79.615471
H   69.349655   87.267830   69.078438
H   93.572533   55.603321   78.837440
H   53.527405   48.193405   71.484810
H   43.597450   95.852867   87.788483
H   64.281631   54.952194   23.825500
H   44.532425   49.396828   52.680897
H   46.133080   61.841022   90.074890
H   45.066170   16.536993   82.698036
H   53.275234   60.613541   58.093632
H   56.052818   66.730881   16.627556
H   51.258965   95.569115   45.305683
H   35.116096   63.144920   67.241478
H   72.563690   53.268837   95.200714
H   18.259979   91.688072   79.668411
H   66.491829   65.997269   49.260593
H   45.405640   99.472862   39.503113
H   88.997437   21.518490   93.775864
H   17.205879    7.477914   69.132118
H   24.556980   61.167965   65.746544
H   71.695427   44.213261   62.552246
H   62.200298   69.160751   84.023849
H   49.970062   32.231583   16.190250
H   99.749809    0.694378   92.369240
H   60.585331   45.682465   88.832809
H   56.667053   73.196465   76.077477
H   30.645494   21.625996   33.152939
H   77.099785   22.536434   37.117290
H   21.405668   28.287708   59.390366
H   56.311516   31.453520   12.536440
H   16.668922   55.657421   60.793079
H   70.147240   93.102852   55.147587
H   23.873318   43.489983   59.425678
H   97.823235   27.272650   36.205215
H   39.068275    8.376901   87.295319
H   74.092285    8.916099   35.952911
H   36.628273   55.195595   58.305664
H   43.005661   65.594864   82.658157
H   67.827316   67.936241   80.642746
H   58.609863   92.960312   86.253914
H    9.428693   49.151695   23.551538
H   32.582401   61.542992   98.453590
H    4.176121    9.464073   68.409378
H   68.543221   14.963414   65.906784
H   73.171410   57.415733   90.278465
H   76.378845   95.079948   35.302139
H   24.794645   30.442959   79.692001
H   52.927578   89.877258   11.534653
H   57.491394   25.731121   87.344032
H   89.092148   76.363403   77.259750
H    5.038388   38.552689   85.335548
H   40.962463   99.796913    5.380644
H   77.161377   78.915474   35.184044
H   98.625526   62.404194   69.697769
H   54.632538   56.771938   69.190079
H   61.005192   21.892921   77.330513
H   45.390327   92.429749   21.108900
H   10.231074   24.090164   64.128639
H   30.281672   74.546112   38.875523
H   75.423111   41.927441   20.913460
H   76.001968   11.060696   25.785038
H   11.295882   93.085228   12.782453
H   20.888304   91.920799   39.182945
H    8.232787   12.384165   65.673378
H    5.129095   25.641964   93.914291
