100
TIME:    3.878, STEP:  3878
H   55.068756   66.388977   95.595596
H   93.395897   15.003008   22.622725
H   46.414024   52.902641   77.821083
H   82.127518   72.876396   27.596251
H   60.436157   83.596306   60.555954
H   67.888680   97.006767   62.798271
H   49.723537   23.198406   93.717583
H   15.083145   24.098461   52.129528
H   58.299294   13.439600   55.981701
H   68.865196   72.065697   59.550278
H   39.532913   22.282032   66.199989
H    7.826660   18.074488   16.888773
H   96.583298   27.083160   39.687317
H   63.065056   93.122780   52.358440
H   27.672691   23.628639   64.362343
H   45.598938   72.544975   11.133173
H   12.261516   38.469944   26.417990
H   84.009239    6.113426   65.100281
H    5.669638   41.040932   67.668854
H   88.038872   23.462603   80.364922
H   34.150696   70.150879   51.986076
H   34.167984   49.232086   89.030777
H   33.967140   63.082695   21.396183
H   58.733284   83.192200   19.058743
H   90.885162   78.614944   65.179726
H   28.874723   12.058806   25.685946
H   27.674208   81.273880   76.916298
H    5.327971   37.451630   94.956535
H   95.493759    0.934807   73.857277
H   49.692581   94.858879   91.678833
H   68.680794   69.802528    2.563927
H   10.616448   45.365372   40.258156
H   43.518757   84.749657   47.157822
H   41.956696   18.327065    8.377674
H   84.374130   65.773033   60.870033
H    9.739176   89.122711    7.300735
H   51.749191   62.515121   14.036414
H    3.708463   87.980934   96.101906
H   81.381409   96.923820   68.505272
H   97.929497   49.138298   43.147449
H   70.218002   89.247910   33.709698
H   83.088577   85.904968   84.993332
H   44.644321   86.755157   81.585381
H   31.721880   77.763458   59.903931
H   20.268232   78.884521   87.961365
H   28.056133   36.883717   98.913979
H   72.031540   35.737267   62.692009
H   56.446522   35.312103    8.526543
H   78.386948   11.274261   89.778900
H    7.210765   89.762123   12.432659
H   43.248753   95.247261   94.305832
H   93.596848    3.889450   19.478001
H   89.315987   44.494690   77.641914
H   86.887840   43.933922    2.942660
H   32.021622   98.446228   33.330585
H   98.418472    8.454855   60.610535
H   42.099636   77.648552   24.817633
H   37.291985   10.658213   13.666479
H   96.127113    2.623137   13.766567
H    3.111756   25.863920   53.311043
H    4.327477   98.228172   12.037107
H   61.276817   91.846207   19.886391
H   37.337650   42.655693   67.544365
H    9.334337   62.889862   21.851780
H   86.247124   51.115108   56.710468
H   63.113472   49.485909   75.481430
H   76.429153   82.434387   54.292400
H   12.485903   39.324722   51.593426
H   50.182289   71.137985   17.010464
H    8.955072   43.195084   93.567169
H   98.887535   31.541180   15.628540
H   54.207619   22.822052   40.550831
H   54.138840   26.484722   62.319313
H   44.842281    3.971424   72.736595
H   49.144573   34.167431   95.376259
H   17.334436   56.117188   34.989529
H   19.051867   90.427292   59.633549
H   14.175822   97.147224   28.607149
H   47.475967   42.127819   60.953110
H    9.340813   97.749107   86.828117
H   86.762985   69.401352   11.768106
H   32.295639   69.553848   62.501587
H   63.160183   71.988586   99.260345
H   16.950796   44.008125    9.222087
H   63.502945    6.312532   71.823837
H   62.042988   51.501076   11.083377
H   26.157583   21.390739    8.461397
H   18.378946   94.812355   55.413109
H   36.164169   78.251549   96.473763
H   23.470991   49.725456   62.844086
H   82.726318   82.832024   15.358071
H   65.229156   87.148979    7.419767
H   34.040718   43.876923   18.896219
H   22.050930   48.462692   88.292137
H   89.541328    2.361201    5.199935
H   14.228530   42.592781   67.145164
H   54.784821   90.231224   14.161619
H   21.101156   49.256531   93.982948
H   23.974266   53.566830   20.213440
H   80.088081   79.116646   24.159674
