100
TIME:    0.209, STEP:   209
H    3.188994    2.855017   98.954666
H   95.456474   16.076389   91.184204
H   83.355347   88.940376   20.885864
H   81.511688   24.039721   28.706911
H   93.299057   89.509796   60.038338
H   24.775425    0.986180   99.442986
H   42.016544   75.450966    6.796637
H    3.459311    6.683773   89.004204
H   48.490379   66.198883   86.931328
H   69.128960   19.387638   15.873247
H   80.814362   74.652130   19.617870
H   47.864643   34.166618   78.052376
H   29.968246   49.062653    4.356424
H   44.733524    4.432872   73.145744
H   83.044853   51.353271   40.726170
H   93.120132   93.456367   15.690815
H    7.263044   95.818611   92.383949
H    5.610921   84.536880   92.300583
H   48.518761   87.120804   74.372696
H   86.991951    1.149900   30.446421
H   51.874191   35.410950   51.569099
H   82.388039   44.375793    1.459050
H   82.953575   92.922432   26.370983
H   99.623138   39.188389   91.552399
H   22.108061   69.598717   38.101700
H   45.698856   21.383762   69.582298
H   44.056652   33.788906    4.113618
H   14.906235   66.194595   73.684067
H   15.715825   68.054100   47.292358
H    9.007916   85.666946    0.003990
H   24.323214   40.784447   92.873497
H   78.953796   46.736069   79.915916
H   85.079651   53.190605   16.625326
H   86.932732   54.569061   62.946419
H   75.576805   43.121445   37.454849
H   90.726585    0.903535   19.925192
H   99.845238   96.881203   24.933544
H   55.350410   55.128941   37.189686
H   41.324749   76.046455   22.094795
H   43.507816   92.617119   54.478500
H   20.959118   63.349804   47.263058
H   12.837448   21.236925   12.619283
H   13.041730   64.753250   16.569695
H   66.013397   16.274332    1.166847
H   38.526291   23.645767   73.992126
H   75.282173   67.133110   84.137886
H   38.286915   37.015377   29.409124
H   56.250576   97.534271   81.509689
H   71.137138   15.140263   36.136848
H   30.273184   33.930508   69.046158
H   43.527645   49.466476   55.622257
H   15.290044   44.345474   60.342758
H   13.214636   23.220581   90.731575
H   71.846054    3.792077   41.038471
H   24.120850   76.827347    2.179626
H   93.827744   12.312473   85.511948
H    9.502232   83.516228   75.865044
H   10.496889   57.149178    8.171467
H    6.761116   47.599686   95.438202
H   45.227150   43.852707   57.663422
H   72.884506   68.849960   98.101135
H   91.493317   26.000015   85.898148
H   88.409264   92.900932   19.219940
H   57.391914   42.931389   21.466078
H   40.617584   44.151928   15.024598
H   88.506264   31.883137   58.543575
H   70.800102   55.586636   77.152634
H   65.928703   29.490601   76.194008
H   67.320427   34.768913   47.125065
H   34.620499   58.657051    1.291270
H   15.395784   81.184029   59.640781
H   56.733242   44.589256   71.924477
H   93.364166    7.969570   56.390484
H   25.590706   36.153690   90.787117
H   72.247360   28.941080   17.241493
H   30.599127   20.967119   81.866257
H   85.930939    8.429379   94.730774
H   41.799530   37.054630   25.982132
H   71.571815   52.888630   20.018879
H   89.275711   97.571281    2.915700
H   14.971846   31.443655   92.480362
H   57.005260   45.592484   69.304260
H   31.020226   10.745805   49.806030
H   64.548370   30.045994   44.340340
H   42.153542   35.811020   27.492130
H   46.485172   16.728910   56.297474
H   81.113350   88.156914   33.509106
H   59.319656   88.561089   93.566032
H   60.020454   82.535622   26.490955
H   47.857002    0.687651   31.683134
H   32.575718   84.716690   37.875439
H   93.750511   11.225183   37.506775
H   98.694328   33.893700   35.083885
H   67.429268   25.909601   40.910336
H   52.978413   31.008701   20.889565
H   11.184174   87.478325   56.653831
H   46.012688   79.674538   25.169182
H    7.632634   18.017181   52.691307
H   98.755943   37.751209   27.544979
H   52.221111   73.335091   77.556259
