200
TIME:    0.804, STEP:   804
H   26.801603   60.603199   24.983627
H   32.991028   41.111916   12.793715
H    6.316737   93.824341   73.128227
H   36.853867   83.565926   29.751236
H    9.222011   98.023743   45.549538
H   71.270691   37.507149   48.855827
H   11.530578   54.903954   60.568020
H   15.527551   13.240096    5.052978
H   10.332651   79.050873   33.960644
H   91.007339   66.998222   73.826057
H   31.851938    6.642193   10.784599
H   33.110016   57.076813   39.615822
H   25.016857    5.726414   38.176079
H   77.746376   55.586483   69.443413
H   92.392105   76.286293   41.590881
H   12.860962    2.728138   42.156334
H   10.738725   34.133320   88.048500
H   23.169868   10.280713   33.479366
H   83.790710    9.283384   50.786430
H   91.850594   71.959312   15.607278
H   64.853661    4.912499    0.001400
H   77.472939   70.372292   48.840347
H   78.116020   58.440720   35.603340
H   20.554375   93.201241   89.817558
H   27.760757   35.387199   25.285320
H   18.194220   87.366562   88.328957
H    9.818007   70.113594   71.758560
H    7.454293   93.395638    2.215313
H   34.823185   39.386665   35.035828
H   67.562881   35.873455   79.116196
H   12.625145   75.012367   16.884365
H   21.669903   76.725082    7.489235
H   13.495766   21.121325   80.068222
H   77.760231   64.193245   48.148422
H   20.922262   66.496078   29.928499
H   14.638014   37.062500   85.943855
H    2.452176   62.255875   90.189064
H    5.017402   59.344563   89.809326
H   32.196503   26.204895   56.968361
H   84.673904   37.369183   41.665131
H   80.672127   78.876846   20.244713
H   41.411942   31.280085   23.107040
H   66.546829   74.825661   71.270882
H   36.024796   90.626656   38.919254
H   48.047714   93.502762   64.717003
H   33.122948   99.160500   48.821774
H   90.602509   98.580261    8.544448
H   76.385017   65.542000   27.372025
H    8.892264    7.349365   61.572964
H   41.934277   20.346716   81.852081
H   64.791550   63.357475    5.517133
H   99.578484   45.405499   75.667519
H   67.389122   78.293327   15.298360
H   14.012430   94.085739   90.055244
H   53.325974   63.841751   72.533028
H   98.075859   58.454880   97.116608
H    3.820916   18.879738   43.604603
H   73.570541   71.690567   95.123283
H   16.280199   85.372604   20.767277
H   30.058811   92.822182   56.568115
H   48.592903    4.372614   25.757839
H    0.073343   17.760958   53.390022
H   86.985367   36.889679   65.857147
H   37.791679   65.956993   16.260078
H   80.414749   84.487091   40.992908
H   16.615187   38.472649   43.001114
H   65.107765   11.265113   97.487587
H   94.183037   92.732216   98.437782
H   36.583801   13.474898   54.841164
H   41.990368   51.460140   50.952473
H   58.217743   86.346985   88.367584
H   16.289402    8.997251   40.816845
H   95.394180   35.413647   80.609985
H   26.239920   96.567650   76.992348
H   86.012589   10.001426   41.093460
H   67.569527   99.164986   59.191971
H   93.043732   50.946579   64.167854
H    5.665592   16.240072   28.681587
H   15.820368   54.818504   22.440351
H   59.776638   87.521469   67.514313
H   67.305565   20.569876   92.760284
H   51.436443   58.446949   70.421562
H    8.799277   19.852907   73.777794
H    6.282086   80.302162   12.233403
H   18.824066    5.287934   41.798782
H   40.556458   66.040863   16.042145
H   61.133064    3.959360    3.064357
H   70.641243   97.553070   32.715004
H   82.948929   73.429947   79.201904
H   20.619225   11.327875   48.660610
H   17.600761   39.761616   78.245850
H   80.126808   93.483887   10.674198
H   74.052994   10.501221   79.666809
H   34.737110   74.170921   84.591087
H   39.415611   49.297020   91.429741
H   45.915504   40.319176    2.543693
H   86.956291   94.770958   22.619255
H   92.555534   37.399113   54.168060
H   24.238060   64.128220   54.879982
H   77.010918    7.091677   27.388102
H   35.029934   96.020386   95.497780
H   11.544141   85.189377   62.753548
H   34.870590   16.557878   38.383953
H   48.976463   68.980804   12.559993
H   24.591097   20.060852   43.373043
H    9.751818   99.159622   17.484949
H   91.210457   36.902958   53.399914
H   61.427631   55.929115   96.932869
H   87.129784   32.970375   26.404865
H   22.484423   20.196695    8.297625
H   54.615028   91.165688    1.192666
H    8.639942   77.528015   96.935509
H   47.298309   86.819489   81.667580
H   61.313652    7.238222   60.410446
H   45.029030    5.454078    6.997001
H   91.021553   89.298958    4.378021
H    9.386035   16.384420   90.755051
H   37.909634   54.757145   22.704704
H   40.281075   78.888565   55.665607
H   85.666634   57.931454   70.382828
H   46.441048   25.507328   69.038536
H   93.954224   14.119282   64.778198
H   45.833809   98.035355   40.760769
H   95.767944   47.023476   93.166618
H   60.040092   94.988121   74.159721
H   68.385246   77.783234   14.641567
H   81.367531   51.823349   49.273087
H   63.092033   91.993431   39.765972
H   99.408424   32.068188   72.037270
H   95.082016   21.476120   76.110161
H   71.376015   65.047760   24.964962
H   60.051720   91.645248   22.627491
H   90.596077   10.034433    1.571077
H   73.265320   27.463299   56.648388
H   32.288059   91.172089   30.500046
H   47.336380    0.903009   75.372551
H   69.826462   88.001717   83.415596
H   96.029076   46.611012   74.286903
H   61.055237   52.220993   71.416695
H   43.753456   82.040855   79.786041
H   78.539688   46.482834   33.128723
H   31.274155   58.147438   59.394642
H   36.874901   67.141273   80.360779
H   31.869392    6.111805   87.470497
H   66.812592   51.062027   67.511108
H   66.605461   71.692307    2.834169
H   58.070488   94.307884   43.243549
H   27.252083   52.424461   65.589134
H   80.262909   41.244301   92.337677
H   27.440704   94.832359   68.890823
H   56.341293   70.888382   47.086399
H   57.529053   91.503380   30.477844
H    2.376623   10.749691   83.666245
H   24.818855   14.088652   62.014866
H   35.977268   68.774490   70.956261
H   80.244987   44.927372   71.413635
H   65.214951   77.798203   87.434006
H   54.064667   27.610733   22.937504
H   86.568413   99.609116   81.688332
H   57.356449   33.931488   99.885056
H   59.496033   61.496025   68.420006
H   17.122972   20.133503   30.657944
H   89.496758    9.979610   36.997540
H   31.977262   36.748280   47.069199
H   53.553947   41.225861   15.366243
H   21.630898   46.493725   59.218739
H   65.188011   88.444649   58.200687
H   24.124905   56.593376   71.334854
H    1.736924   26.336065   35.525162
H   52.211220    6.203530   84.052155
H   68.590332   12.341086   35.928741
H   26.678759   44.498207   59.190063
H   48.570236   53.218906   74.554642
H   64.280930   61.048286   87.324631
H   45.224121   90.793808   72.712166
H   18.318596   50.709770   23.834396
H   29.623783   70.540497   10.500259
H    6.728657    9.738731   72.091995
H   61.177563    8.268071   62.538853
H   59.471825   60.505089   94.341209
H   71.120789    5.400838   28.606251
H   30.603666   30.794521   90.205917
H   39.665981   89.571838   17.240952
H   63.763489   26.263958   97.939247
H   92.816513   63.871948   76.073227
H   11.067478   40.982864   86.776955
H   50.990784   94.864052   11.762053
H   63.325195   91.114693   45.261803
H   90.284706   63.688496   72.989273
H   59.869720   55.205288   72.828751
H   74.762512   12.364479   75.273872
H   43.029366    0.256419   17.440565
H   16.628166   30.941788   70.727028
H   25.250483   86.040009   44.679600
H   65.539810   29.063675   19.971382
H   76.705093   11.767391   21.839298
H   13.210250    0.938346   22.503157
H   12.518255   86.196922   31.060753
H    4.392241   13.190012   52.793007
H    2.125253   15.884460   89.913071
