100
TIME:    5.023, STEP:  5023
H   77.637611   61.386635   94.547318
H   61.752113   77.053452   94.821594
H   66.096390   35.278214   64.385643
H   82.319702   25.703266   64.836922
H   50.180496   75.373108   29.509781
H   50.131001   95.766304   76.191185
H   89.714928    0.513626   83.258148
H   25.088402   23.155537   46.999218
H   30.153008    3.352352   83.907204
H   37.574074   88.506203    4.383318
H   33.027802   68.353882   55.908054
H   64.129372   75.467751   35.385918
H   23.538986   57.839714   25.911377
H    6.372249   89.593575   39.492973
H   41.598686   21.352781    9.320562
H   99.559128   72.399063   16.088074
H   20.187477   14.203893   30.651854
H    8.481442   50.414951   25.402533
H   23.503338   89.073746   27.993357
H   57.186462   99.146767   58.321815
H   66.204781   56.162575   20.911785
H   43.940247   50.752090   91.523453
H   18.679741   53.770485   88.635681
H   52.349415   96.917938   34.021149
H   49.932404   87.810364   73.635841
H   23.648653   78.165543   18.078165
H   28.939604   33.676456   99.629005
H    8.716088   90.896378   32.806046
H   20.391701    4.818112   19.732140
H   93.597992   66.520409   82.702919
H   13.741269   72.477020   11.975166
H   82.912575   13.733401   34.259758
H   24.170296    0.976239   50.308464
H   90.334763   13.394677   60.139992
H   55.913361   79.219742   30.593834
H    9.278726   78.851418    3.634955
H   61.569191   20.582779    4.258140
H   56.380611   67.032829   76.900139
H   33.050159   71.974785   57.546158
H   90.082985   41.946968   33.233242
H   91.965668   28.534735   60.685406
H   80.181847   37.292656   38.783123
H   54.506878   93.621384   64.289192
H   58.606876   96.953674   71.857834
H   20.948011   33.709564   85.941917
H   13.283735   58.722858    3.566872
H   80.976852   98.005028   73.682503
H   56.507671   47.105240   79.372719
H   11.859138   16.445332   44.105080
H   31.225086    7.184622   32.348892
H   43.161396   84.705017    6.377360
H   49.240471   97.642166   44.311951
H   13.063376   51.133789   11.140520
H   60.367584   25.248352   53.467186
H   40.856598   98.795906   43.070843
H   99.851120    7.250014   21.632034
H   14.688979   44.610298   33.716637
H   52.032364    2.526987   84.173813
H   86.430153   51.003372   25.864212
H   27.552814   13.872006   20.744514
H   76.555206   44.978733   22.763626
H   20.639765   81.188705   68.081131
H   15.071389   64.522629   89.028259
H   87.960060   69.125565   90.764175
H   31.693235   59.666393   63.339207
H   92.775291   92.564964   43.182289
H   84.563538   22.021286    9.572277
H   33.392921    4.807478    6.331046
H    7.246650   88.865593   45.199463
H   32.152580    0.783766   91.156128
H   62.529732   53.635269    1.892124
H   59.796867   84.821243   24.381935
H   79.482132   69.846809   32.958771
H   19.633518   31.513638    4.704411
H    4.351140   35.800999   82.175262
H   44.406235   29.499517   57.944248
H   23.010447   91.185982   79.882805
H   67.970001   22.278343   91.840721
H    2.385370   38.764591   73.726723
H   53.187805   35.389980   88.185364
H    9.164257   81.246902   80.202080
H   18.206779   77.031570   66.757347
H   35.590912   91.121643    8.308318
H   95.724564   41.988327    4.644207
H    7.750400   34.693436   60.828880
H   35.687511   93.557121   90.595459
H    2.629542   38.139908   63.059555
H   36.807953    3.141447   43.506409
H   59.925156   14.499874   87.109138
H   22.237677    2.614059    3.778618
H   29.584557   44.658848   39.538372
H   49.950031   73.256989   29.236464
H    7.437489   78.237343    7.440876
H   32.719872   17.914339   65.492332
H   69.746330   99.799034   31.508263
H    8.800841   97.379486    8.004473
H   63.900200   55.940304   48.311768
H   25.303007   59.005524   75.655540
H   69.428986   58.502476   24.307945
H   51.207882   49.734142   13.858705
