100
TIME:    9.215, STEP:  9215
H   94.149567   76.962257   90.709427
H   45.979965    4.210291   59.141430
H   38.168270   36.867439   15.170279
H   83.023315   52.992851   35.056831
H   12.624884   11.379978   15.849598
H   85.119995   91.224800   91.338165
H   70.010536   83.578987   11.078182
H   95.605469   85.816544   62.104050
H   27.105583    0.307172   20.035406
H   23.064615   48.698750   68.525246
H   43.098175   37.026443   52.112556
H    4.128563   85.591057   36.994804
H   56.139709    4.217340    9.346497
H   98.810333   76.672676   58.506733
H   92.531380   46.903603    7.752360
H   31.008770    5.751325   68.115295
H   83.091469   91.471840   12.266157
H   98.123337   46.436958   80.088455
H   88.793686   64.936020   48.842632
H   44.246334   10.123133   43.732628
H   17.445549   38.835197    7.133368
H   45.831371   56.317032   34.535889
H   62.708672   19.683004   68.698395
H   62.852489   47.066376   22.687822
H    0.004012   55.365746    4.592647
H    4.156374   54.445297   23.709120
H   67.460182   59.422146   82.806747
H   55.006035   86.564758   71.373100
H   11.542346   85.149071   21.573772
H   54.336769   62.768204   15.954697
H   78.724724   48.382252   80.317627
H   47.597980   97.913040   46.185356
H   19.448830   94.269577   27.956930
H   67.457764   29.222839   83.538567
H   51.619896   61.965187   85.700821
H   73.681763    7.190541   90.456276
H   63.636444   67.061775   34.571186
H   83.118599   90.313866   72.717339
H   56.105587   80.638573   51.310272
H   95.243652   49.506317   63.052841
H    5.471936   72.369736   59.445889
H   23.624008   77.739792   50.402142
H   90.591461   18.766655   67.080711
H   90.938271   67.322853   81.727608
H   57.322075   68.326851   44.665226
H   59.177284   38.672832   20.598284
H   13.736167   25.981840   13.924654
H   56.750057   90.281509   38.749134
H   34.393440   69.263100   76.884979
H   19.206625   70.995140   39.220036
H   42.868847   79.994514   50.569534
H   52.978268    8.655056   69.128639
H    0.010063   75.440430   67.681137
H   63.289085   56.856644   38.448006
H    7.082535   66.164352   78.718033
H    5.073030    2.840438   78.926437
H   80.442535   23.651787   32.410728
H   39.887634    6.643818   76.197533
H   17.046223   28.135748    4.049433
H   50.922985   36.083942    1.514065
H   40.991329   50.030125   95.923927
H   71.859550   42.170151   78.406380
H   99.666489   78.467796    1.570251
H   75.818176   91.961014   76.953583
H   98.081390   24.856548   53.721638
H   35.256752   84.168724   91.047081
H   48.232040   66.946198   11.962051
H   43.822754   44.553535    6.732895
H   16.175478   87.655212   82.284271
H   17.176849   11.490950   82.298752
H   29.407810   68.411125   51.615273
H   14.434648   45.626366   31.501923
H    6.156630   62.497082   25.476505
H   27.351673   66.201271   55.629402
H    6.367287   41.883831   99.989258
H   43.507095   98.167473   75.876022
H    3.701118   28.218647   54.174171
H   64.909492   48.181099   23.359581
H    3.407419   26.451359   20.496340
H   47.612785    7.034216   27.040642
H   91.214439   24.615763   30.751411
H   32.782494    4.235372   16.077368
H    0.742337   61.225620    7.532426
H   84.126076    0.706415   21.769787
H    3.637451   72.465744   54.462723
H   39.208805   47.537025   81.700699
H   82.603859   33.346596   62.949944
H    4.231249   67.682228    0.032824
H   46.922855   81.096046   52.823982
H   51.609600   30.146202   53.629181
H    1.138461   71.012299   28.066063
H   60.115582   88.535782    9.111291
H   76.152817    4.009413   31.614679
H   37.859238   72.236313   48.150845
H   97.267517   24.305897   27.835936
H   55.042816   31.840960   91.482010
H   31.158604   96.508888    7.224791
H   20.490229   42.418324   93.886742
H   69.731712   76.594795   73.185280
H   11.591341   42.162090   10.029259
