100
TIME:    0.224, STEP:   224
H    2.174633    1.479452   98.940933
H   95.039223   16.889664   92.130402
H   83.613068   90.019554   20.709740
H   81.514206   23.421682   27.884710
H   93.164703   90.712112   59.631615
H   24.542824    0.969855    0.928479
H   41.230450   76.463768    7.969671
H    2.280340    7.981432   87.627022
H   48.121651   64.756699   85.987190
H   68.719032   19.602959   16.460672
H   79.419098   75.255692   18.172997
H   47.292095   34.918495   76.984642
H   29.014095   48.155136    2.865565
H   43.990803    4.386623   74.287178
H   83.227272   50.013512   40.005077
H   92.517029   92.144417   14.445698
H    6.057108   96.810585   93.749687
H    5.931456   83.807434   91.780563
H   48.752335   87.750000   75.163025
H   86.585915    0.835360   31.469751
H   50.984070   33.917610   51.162033
H   83.826332   44.395592    0.181792
H   82.753304   92.800438   25.941772
H   98.229477   39.368290   90.438431
H   21.571619   68.409218   38.212479
H   45.630421   20.936470   68.176506
H   42.763126   33.165318    4.411265
H   13.640633   66.894745   74.179825
H   16.042007   69.415031   46.583282
H    9.583068   85.295700    1.196415
H   24.913271   42.129585   91.686516
H   79.900909   46.321678   78.527290
H   86.136169   52.093117   17.976645
H   87.566505   53.194397   62.314476
H   75.203957   41.987564   38.368202
H   92.030754    2.081873   19.873579
H    1.283933   96.331886   26.115490
H   54.730484   54.854397   38.248150
H   40.650349   75.726250   20.657074
H   42.095043   91.212929   55.658730
H   19.934071   63.864445   47.616566
H   11.489334   21.910181   13.323981
H   13.170905   64.843201   17.653164
H   65.055527   16.525702    2.633470
H   37.225212   23.053936   75.275696
H   75.090599   67.415092   84.196709
H   38.445301   37.824589   29.537298
H   56.251377   97.688766   82.437805
H   71.575676   13.898006   35.538437
H   30.587782   34.158817   67.996964
H   43.526958   48.018227   55.779613
H   16.018976   42.953529   59.357994
H   13.525772   23.307556   89.860451
H   71.498840    3.547316   41.700397
H   22.926659   78.142273    2.306906
H   93.846512   12.296680   85.001312
H   10.453150   83.083412   77.291664
H    9.379917   55.732628    7.785086
H    7.944091   48.233459   94.286697
H   44.236893   45.005699   57.237587
H   73.830704   68.152328   96.931549
H   90.960938   25.860397   85.219513
H   89.426643   91.878059   18.190887
H   58.421997   43.012985   21.058783
H   41.213020   42.953846   16.421522
H   87.584785   31.137440   59.430492
H   69.596642   56.105167   77.876816
H   64.892555   30.348507   76.911095
H   68.067955   33.691109   46.184246
H   34.924339   59.411560    1.259727
H   14.919424   80.163445   59.460880
H   55.496479   44.091438   73.022652
H   92.386154    7.227650   56.005848
H   25.260544   35.204403   89.895622
H   72.970627   28.962423   18.378635
H   30.953779   21.928480   80.856888
H   87.292786    7.129282   94.996277
H   42.504257   36.073849   26.810551
H   72.290733   52.844799   20.186134
H   88.540085   96.754402    1.623453
H   15.265358   31.598894   93.376892
H   58.130787   45.690445   68.049988
H   31.969341   10.996173   51.234711
H   65.580170   31.329563   42.970253
H   41.423111   34.872696   26.038067
H   46.139561   17.280230   57.339001
H   82.115166   87.066292   34.224361
H   59.561127   87.360146   93.410164
H   60.331734   81.700432   26.368217
H   46.530861    0.070464   32.219372
H   33.189579   85.526703   38.192211
H   94.860359   12.353285   37.792534
H   99.656776   34.343109   36.244316
H   68.879005   26.819464   41.921650
H   52.719090   29.665051   21.234203
H   12.423111   86.885979   55.879066
H   44.822044   80.535362   24.306526
H    7.687695   18.144897   52.451324
H   98.041374   37.815868   26.288532
H   53.152660   72.949883   76.111557
