100
TIME:    3.704, STEP:  3704
H   66.835846   82.345703   95.754898
H   98.236015    5.568982   11.646965
H   43.423134   40.384178   79.862801
H   82.098312   80.044975   37.134136
H   61.994659   69.649437   65.273941
H   70.586189   97.195274   45.565804
H   58.842236   11.448702   80.110558
H   28.759201    9.045619   68.105827
H   62.576546   30.168991   66.934669
H   73.620354   69.567314   52.736145
H   55.717972   15.280754   82.961189
H   14.468216    9.352970   29.273821
H    7.651533   37.610352   56.980850
H   71.680626   93.659096   39.116482
H   25.555969   39.170822   72.725685
H   52.594940   87.763603   25.577196
H   26.253609   26.961720   10.578085
H   80.292198   14.575299   71.132507
H    2.959682   33.740929   58.501835
H   92.727654   27.157740   68.518181
H   44.476105   87.472290   56.708046
H   17.486435   49.001099    3.848465
H   36.290291   64.497826   26.375027
H   74.899757   81.105347   31.982098
H   97.108551   92.413132   63.894691
H   29.673223   17.243162   41.994720
H   42.678913   88.506180   73.464760
H   20.009378   29.329895   89.205742
H   91.710342   85.148026   82.082558
H   43.020493   99.165337   77.846130
H   61.833050   54.199757   16.330254
H   99.630165   50.172302   56.366219
H   31.261854   97.480522   31.482527
H   34.604919   34.273170   15.707546
H   88.699173   78.926048   50.275139
H   94.608574   75.454620    7.901270
H   35.061005   68.887192    0.326158
H   10.899941   91.164314   83.822395
H   88.725220    0.715075   85.367363
H   14.318386   65.428116   29.456915
H   82.109879   83.276749   29.610334
H   98.726700   78.096527   76.818497
H   43.145557   85.711731   69.016472
H   42.833160   74.848236   42.891296
H   35.361263   85.750427   73.071960
H   30.300961   33.564930   98.207741
H   70.672165   26.274342   61.020668
H   56.437229   33.519958   97.760490
H   73.299911   25.684433   96.719147
H    3.561427   87.115059   24.601986
H   43.262028   12.046085   92.471207
H   85.140579   20.035389   30.901264
H   85.707802   43.485779   87.746956
H   90.918175   46.773476   95.264557
H   45.875565   83.195740   31.850473
H   98.200760    8.638052   66.533905
H   31.069315   82.669212    8.268681
H   50.248528   27.090744   18.148659
H   82.403267   95.271194   27.124683
H   14.593762   12.489210   58.260017
H   93.351448    6.319924   25.603077
H   67.452415   93.465775   27.759880
H   25.524462   54.528984   79.476067
H   97.386101   61.943344   26.576405
H   79.341393   65.012764   40.506824
H   73.802620   58.135994   65.193192
H   90.389297   76.418091   45.891888
H   24.505318   29.373499   43.275219
H   41.509636   83.640518   27.923962
H    5.429857   34.442780   93.933563
H    4.412916   43.379982   17.716057
H   68.554489   28.596741   27.810890
H   65.483780   35.091000   66.780266
H   48.673489   14.982555   83.075279
H   40.756008   33.919186   82.186073
H   13.220693   44.964737   46.696880
H    3.253732    5.508118   56.556370
H    6.000987    8.524614   18.997271
H   39.132538   42.638912   59.010956
H   17.874336    7.225441    1.818388
H   83.359238   67.601242    1.368709
H   19.239532   68.417496   77.051147
H   52.151104   69.083984   82.687653
H    4.979933   29.118591   25.113907
H   71.975143   17.196529   88.691238
H   66.047424   45.109093   99.000061
H   14.536520   34.041954    0.164219
H   15.578554    8.743063   57.222511
H   32.553329   87.939751   97.896858
H   38.855190   56.884743   56.624680
H   75.605530   73.435875   11.683511
H   52.353722   74.064995    4.104134
H   22.887482   38.655807    5.440499
H    5.232831   37.907623   76.559563
H   92.549477   17.947491    1.201793
H   99.856766   49.463997   76.132439
H   68.596283   80.245659   24.169027
H   20.462622   47.775024   96.768074
H   32.263268   52.816784   34.788223
H   69.279457   83.582405   40.921890
