100
TIME:    7.233, STEP:  7233
H   28.183641   58.720039   92.524002
H    0.719558   96.808586   34.168766
H    4.099402   94.275414   38.436871
H   82.690643   34.651703   43.697735
H   30.385038   52.514187   69.589005
H   15.852683   93.372047   95.054184
H   73.887543   49.745258   56.083172
H   51.386757   14.348874   44.084183
H   75.826927   90.869843   44.795635
H   77.200691   20.240160   90.918953
H   27.458984   57.277988   43.030205
H   79.778076   86.243668   78.076408
H   82.525261   24.181286    6.311273
H   96.946754   82.781746    7.673802
H   68.458015   23.945610    3.068692
H   10.699837   79.104309   32.639160
H   42.472328   60.376225   31.836878
H   55.742046   42.881149   48.792450
H   57.918644   81.786774   44.423626
H   97.649734   52.210087    8.788828
H   35.060242   36.149506   60.924305
H   55.815094   53.685898    3.321521
H   89.171227   35.796700   25.406195
H   47.008255   23.355928   69.889130
H   70.890816   12.546410   89.957253
H   13.503094   12.872936   10.224902
H   38.369183   41.810028   43.483067
H   22.242485   94.051704    5.855947
H   68.445442    5.326602   15.264414
H   78.338745   11.823126   58.391228
H    0.718291   70.651993   37.127068
H   22.453152   52.669254   29.668999
H   79.840218   39.281227   49.402718
H   83.712944   10.861390   67.036514
H    0.946143   12.030403   65.114685
H    1.390349   51.948563   96.686317
H   73.537216   39.648071   78.397491
H   65.037102   26.584644   32.854004
H   39.765545   23.821310   43.380615
H   81.925377   35.053928    7.111474
H   40.926849    4.366565   12.751085
H   90.656013   69.967361   49.216801
H   73.534454    6.876528   23.921291
H   17.492802   34.048180   87.939934
H   29.246964   46.513836   75.057320
H   84.759941    0.875116   12.546106
H   98.242477   18.193253   94.893593
H   56.629086   69.867538   16.114559
H   76.456734   33.412830   55.948334
H   77.597900   40.824322   77.801369
H   43.004940   71.343994   29.672520
H   56.652523   92.569855   99.235168
H   58.908062   63.948120   82.787788
H    9.194565   89.189667   50.988235
H   64.892715   92.470222   61.870815
H    2.604452    4.925309   46.398407
H   54.791561   80.841148   43.905998
H   87.471848   93.819481   27.250502
H   60.727280   44.386845   56.207726
H   81.715157   83.740585   57.886864
H   15.963581   42.203300   50.453644
H   42.204628   60.618332   68.085373
H   65.110252   13.715877   37.481934
H   39.716900   81.164291   30.763531
H   19.412197   83.156891   69.146736
H   57.012787   82.699547   73.855255
H    7.251045   98.427002   16.271383
H   80.732887   31.200991   11.981826
H   17.392982   30.069077    6.590623
H   76.923302   11.940098   86.502502
H   92.351326    3.268411   75.386208
H   77.646980   11.435828   86.222252
H   35.386566   60.537380   76.296204
H   70.979500   91.643005   73.393402
H   10.892556   38.965389   49.712574
H   96.647820   71.141380    9.240798
H   23.693703   99.765205   19.019567
H   71.799820   77.772820   13.890296
H    8.362906   32.273121   98.377449
H   44.811539   15.003552   97.791878
H   52.412773    4.111062   12.289294
H   84.055000   91.377777   81.891197
H   75.379311   28.079382   18.777168
H   47.767872   31.102985    2.795077
H    0.142607   96.454369   46.594093
H   84.823349   74.735764   44.064758
H   50.230503   77.454445   68.440697
H   72.355553   26.281649   20.582939
H    5.787769   91.450783   69.034187
H   26.844107   11.689564   82.778702
H   20.026905   63.991112   86.209518
H   13.467653   39.469727   71.341225
H   49.102680   44.545918   78.343575
H   46.307648   51.990562   14.508872
H   31.539288    1.840733   82.293396
H   91.337708   10.108977   93.854881
H   88.481071   82.766861   21.212585
H   24.315958   44.347767   33.679703
H   64.149620   68.036049   39.198032
H   88.480873   93.024185    0.961811
