100
TIME:    5.580, STEP:  5580
H   39.969398   10.307555   94.037369
H   46.368660    7.234805   29.941963
H   75.674927   75.351685   57.845798
H   82.413193    2.753448   34.303856
H   45.191498   20.019030   14.408812
H   41.491619   95.162865   31.352148
H   60.520870   38.126263   26.816347
H   81.309296   71.342087   95.856285
H   16.460884   49.799179   48.846390
H   22.353453   96.503899   26.196287
H   81.217026   90.766129    2.256028
H   42.868782    3.387325   95.739037
H   87.995590   24.157104   70.564873
H   78.792793   87.876747   81.880669
H   48.372505   71.599442   82.547272
H   77.163879   23.681961   69.852264
H   75.396675   51.043491   81.357758
H   20.392324   23.314743    6.094599
H   32.178799   12.439982   57.336658
H   42.181221   87.315956   96.245003
H   33.151604    0.709954    5.793930
H   97.340378   51.491516   44.089722
H   11.242309   49.240440   72.699783
H    0.595143    3.581270   92.653641
H   30.010620   43.638344   77.749428
H   21.109533   61.702103   65.698730
H   80.909637   10.522255   10.681356
H   61.716618   16.895226   51.219444
H   32.502983   55.353123   93.403229
H   14.955553   52.734795   26.982250
H   35.663155   22.425209   67.907097
H   18.081669   98.344574   82.695518
H   63.406178   60.222878    0.487420
H   13.869531   62.349022   36.673851
H   42.068253   37.114975   64.509735
H   57.697361   22.478333    1.883172
H   14.993955    0.182753   48.147442
H   33.360676   56.839367   16.207264
H    9.537566   59.838005    3.569163
H   37.619900   89.802269   77.057823
H   53.897995   47.645065   73.808083
H   30.121799   62.292892   64.947899
H   59.304646   96.961548    4.523846
H   23.042202    6.303025   26.319082
H   72.631294   11.734817   33.606548
H    6.096270   69.346786    5.830542
H   85.328415   28.297852   79.028465
H   56.537418   52.842163   13.836661
H   28.139252   70.313416   21.885033
H   42.907162   15.662519   93.392258
H   43.118900   30.930880   12.249207
H   76.310249   45.957378    7.744381
H   24.617695   54.363464   78.792015
H   47.470131   16.158516   78.046715
H   96.506615   47.609852   47.809116
H    0.545599    6.664104    2.670441
H   49.998718   28.538414   86.691811
H   10.557492   49.925697   69.827255
H   30.359488   74.537682   83.103844
H   90.796738   56.686451    4.902107
H   11.691029   19.076527   79.334831
H    0.872727   76.004227   42.877602
H   52.887386   26.514143   50.833099
H   26.207779   72.159760   75.644196
H   53.803734   15.178421   15.210116
H   58.557732   64.874748   76.116478
H   39.875031   41.277203   36.465347
H   94.916847   36.664036   32.958866
H   35.008785   48.843117   10.263900
H   43.435196   28.799522   89.983246
H   44.843010   15.737572   95.211311
H   13.870945   66.335602   65.164566
H   43.165283   42.295929   18.675957
H    7.373501   96.261192   71.608971
H   31.205927   36.595669   24.400146
H   57.575661   65.199883   20.466612
H   73.583427   42.908978   89.733315
H   94.138870   85.858116   22.601801
H   29.094379   37.128506   79.939598
H   25.875164    5.049853   40.199188
H   20.063745   87.009323   13.492774
H   60.005119   80.657959   20.173853
H   70.823296    0.436666   61.355579
H   34.045212   89.651535   53.769505
H   80.629204   99.851662    6.833990
H   22.866550   14.016021   29.275482
H   39.830315   97.641319   89.619385
H   45.770744   58.557278   37.721817
H   71.483994   83.487022   82.553596
H   72.992340   79.699875   23.689451
H   52.379265   74.734589   51.301189
H   91.162392   15.148799   39.847649
H   43.142151   94.946663   50.514545
H   86.553230   51.705273    3.050012
H   60.116798   49.907848   44.307896
H   54.806717   75.383698   79.234573
H   19.688238   87.905586   16.278488
H   27.347052   63.748047   66.739937
H   42.894653   60.903484   77.653938
H   85.806335   35.442829   60.202473
