100
TIME:    9.590, STEP:  9590
H   68.789459   42.572762   90.366104
H   35.623062   24.531788   82.785515
H   44.614155   63.846886   10.767879
H   83.086258   37.543327   14.501548
H    9.264612   41.437775    5.682238
H   79.306396   90.818535   28.475357
H   50.357296    8.900012   40.403667
H   66.131210   18.259220   27.671638
H   17.887367   64.252548   96.430656
H   12.820723   54.083195   83.208015
H    8.216583   52.115479   15.989916
H   89.816902    4.387783   10.302624
H   32.227280   81.518394   72.079239
H   80.242294   75.516823   87.043129
H   97.086128   13.406746   89.717552
H   15.929749   72.952438   36.987366
H   52.936287   16.275406   46.403885
H    6.143523   28.189354   67.087967
H   94.635895   80.665924   68.599380
H   34.144062    2.159475   69.264397
H   95.192032    1.502601   96.954163
H   81.782990   56.814850    2.601203
H   57.701881   16.634584   57.969559
H   28.008255   51.552460   94.837143
H   86.591537   25.625412    7.360687
H    2.387383   43.390305   88.420235
H   35.122345   43.832432   90.245407
H   23.365591    4.068487   83.767052
H   19.696651   19.171869    3.848221
H   68.716270   53.487045   45.765785
H   93.481880   82.009384   50.648819
H   71.275803   87.550415   11.469704
H   45.864655   66.832367   61.739891
H   83.302109   94.856499   67.739998
H   42.287239   33.572395    8.515508
H    6.279985   36.563457   89.277534
H   99.605194   53.328865   64.119827
H   67.617577   83.453133   99.181801
H   40.275547   72.467491   14.970230
H   59.921795   14.398738   92.555801
H   79.843124   85.238617   68.280724
H   92.020653   79.210587   69.545158
H   93.818695   21.016850   94.168877
H   66.997231   73.617104   18.393063
H   24.794348   53.532810   76.756073
H   54.339294   45.825390   22.121778
H   16.668163   46.377651   17.525663
H   56.772945   94.143890   61.952030
H   45.354019   38.206211   61.927155
H   27.077299   76.705742   12.999716
H   44.680378   43.929611   51.700485
H   71.202988   73.858871   44.512398
H    7.788401   77.614807   45.900757
H   54.605881   50.736916   54.996162
H   77.224648   99.026062   81.905212
H    5.540092    2.445974   66.160553
H    4.217228   12.831188   68.076241
H   11.964974   71.229866   66.538719
H   46.622753   43.982605   75.261620
H   26.177998   64.908661   90.848183
H   64.649048   32.592190   66.689995
H   58.550072   38.679703   61.440079
H   25.125832   52.879326   75.855545
H    1.567488   94.003784   66.774063
H   12.965713   94.905067   88.643288
H   12.220905   65.526299   13.220408
H   18.144863   79.912354   30.068035
H   17.919052   65.999763   24.660065
H   34.866539   60.710098   58.766026
H   24.792892   30.325235   81.503387
H   17.498802   42.894154   47.117744
H   83.553749   33.175194   58.987797
H   81.706238   43.949070   15.860607
H   19.097622   42.468822   33.347755
H   24.430357   42.436008   28.421728
H   52.373405   22.201416   50.643318
H   37.759712   95.760788   60.826050
H   82.527672   23.662132   44.070526
H   21.389364   25.349865   24.682016
H   29.222347   86.606148   94.734261
H   98.555824   28.495310   53.164665
H   60.920654    6.669744   84.704201
H   24.461752   67.496986   43.246571
H    9.926225   32.796707   87.519188
H   85.378403   49.007187   18.111113
H   30.577099   61.312851    7.741920
H    7.649334    6.080812   80.831337
H   10.261793   37.675819   96.147522
H   54.704838   60.216301   49.756966
H   18.453791   14.716705   67.033722
H   16.485647   91.262619   35.985374
H   87.861786   16.739222   16.255266
H    0.191129   15.261816   60.614006
H   72.262550   94.847031   76.259529
H   90.784439   90.715492   36.452644
H   86.016251   17.033735   72.112885
H    1.393601   18.028835   85.658157
H   19.766390   60.972057   86.356529
H   51.867485   78.214134   41.774944
H   34.883064   32.540470   73.905365
