100
TIME:    5.726, STEP:  5726
H   30.095972   96.918877   93.903702
H   42.336372   15.146512   39.148151
H   78.185638   85.855682   56.131519
H   82.437698   96.738190   26.300941
H   43.883789   31.721575   10.450319
H   39.227077   95.004692   45.811550
H   52.869549   47.985317   38.233738
H   69.833984   83.973618   82.451714
H   12.871925   35.761917   39.655670
H   18.364283   98.600243   31.913782
H   67.636459   96.640793   88.192131
H   37.295982   10.705315   85.346428
H   78.679001   15.327843   56.057549
H   71.563637   87.426735   92.990623
H   50.148048   58.557999   75.529755
H   71.293671   10.912196   57.733124
H   63.656258   60.699818   94.648712
H   23.514563   16.210899    1.033626
H   34.452251   18.565271   65.028229
H   38.248070   84.214882    6.185292
H   24.487755   86.175842    1.831262
H   11.337540   51.685333   31.656464
H    9.292720   48.053032   68.522690
H   87.030144    5.327853   81.811020
H   24.789253   32.059441   78.827675
H   20.443983   57.385773   51.969879
H   68.320435    4.453020   13.578310
H   49.398090   23.710014   56.045937
H   35.677574   68.599518   86.501556
H   20.553467   49.121330   38.588760
H   41.409721   35.517185   56.356041
H   27.300236   94.310059   69.179558
H   73.689690   49.540657   13.640256
H   20.038723   48.968956   30.523077
H   38.439194   26.078238   73.400818
H   70.389038   33.914009    1.424005
H   28.997242   94.836060   59.651714
H   27.326725   54.167141   26.509647
H    3.374585   56.656731   89.420631
H   23.868578   76.134819   88.544273
H   43.919754   52.654236   77.247780
H   17.658062   64.057648   72.280632
H   60.562229   97.837067   15.069383
H   13.719975    8.753683   40.593826
H   59.966702    5.974605   46.099957
H    4.212261   72.131516    6.423689
H   86.469040   36.237930   80.429741
H   56.545216   54.345917   22.870321
H   32.406570   58.221542   16.061050
H   45.969250   17.884733   83.180099
H   43.108418   16.835138   13.788327
H   83.405739   32.409115   98.159645
H   27.646366   55.210022   70.313072
H   44.089470   13.776162   84.489464
H   84.882042   60.405125   49.051105
H    0.727459    6.510527   97.700241
H   59.254044   24.325676    0.577593
H   99.686188   36.137947   66.066757
H   41.873787   80.706413   71.895866
H   81.161575   67.908524    0.749530
H   20.901112   12.286953   67.950859
H   95.690987   74.645279   36.271111
H   62.799908   16.550940   40.821442
H   36.233597   72.955078   71.680969
H   59.599312    3.517593   28.806833
H   49.588676   57.616631   84.749138
H   28.161163   46.324245   43.514053
H   84.831673   45.013767   39.938511
H   42.285839   38.352486    1.106857
H   46.392578   36.143166   89.675812
H   40.206993    5.803608   93.460274
H    1.832781   61.490173   75.853470
H   33.645966   35.074570   14.932167
H    4.159924   87.020348   62.933983
H   38.244671   36.803967   35.468155
H   61.027611   74.556572   10.642797
H   86.838737   30.254133   92.315315
H    0.998220   76.312065   30.665262
H   36.095188   36.699657   81.568108
H   18.716492   97.096840   27.621044
H   22.920877   88.519760   22.218523
H   70.963181   81.604767    7.960772
H   80.057457    2.878104   75.259384
H   44.089172    2.144996   40.435108
H   73.520348   90.719978   92.681000
H   19.505939   19.378853   39.414124
H   49.581322   87.025932   96.581207
H   48.118828   46.873669   36.208038
H   74.513779   75.357841   81.359505
H   60.084225   73.693771   28.908590
H   58.354179   82.618713   54.384441
H    1.964914   26.129007   42.629036
H   52.501068   99.326485   61.804951
H    0.663980   60.562939   12.894378
H   57.592720   36.829647   47.662937
H   66.865707   69.618195   71.693527
H    8.099676   96.284279    7.881703
H   27.224825   69.779495   63.929619
H   35.939514   61.532833   65.425636
H   94.875641   31.696766   46.137363
