100
TIME:    6.807, STEP:  6807
H   56.992508   97.786507   92.914017
H   12.483570   73.726219    7.307991
H   96.775223   63.626762   43.438808
H   82.619141   52.202362   67.049438
H   34.201370   18.368406   81.139938
H   22.460163   93.833565   52.866741
H   96.215881   20.978428   22.769419
H   84.869514   77.493500   83.197807
H   86.298820   31.828186   71.611473
H   88.836128   14.123180   74.239326
H   67.084473   40.136845   84.064583
H   96.035187   64.890366    8.399681
H    9.697952   49.956394   48.643730
H   18.039246   84.094795   75.256340
H   63.283821   61.998039   23.554310
H   27.829605   16.364052   68.000488
H   76.728615   32.200916   93.056404
H   46.631954   63.610428   63.557755
H   51.285145   63.917587   21.981533
H    9.126587   61.255177   79.784843
H   60.339691   78.559235   72.487373
H   14.974060   53.120377   39.599335
H   94.858940   39.261330   37.595032
H   86.589638   18.259737    1.525923
H   86.127388   46.331429   86.811134
H   15.511669   25.429783   50.314392
H   75.104332   59.519943   35.029499
H   58.186028   74.167458   91.775406
H   59.182594   66.676277   35.400818
H   62.003635   22.366844   24.525314
H   83.954063   32.452744   70.830833
H   95.555511   64.438065   69.105980
H   49.833553   70.449898   11.025273
H   65.713768   49.901749   84.983688
H   11.548594   44.284615   39.195099
H   64.358498   18.582157   98.025368
H   32.679176   55.248657   44.830235
H   82.646263   34.381687    2.793554
H   57.748470   33.102226   84.663666
H   22.050465   74.935287   73.595871
H   70.041443   89.748405    2.715494
H   26.557205   68.296799   27.469894
H   69.868317    4.321119   93.151237
H   44.693073   26.897909   46.287750
H   66.197914   63.320217   38.603947
H   90.259148   92.749954   10.815416
H   94.914352   95.025223   90.804939
H   56.603085   65.479874   89.756531
H   64.002266   68.693336   72.941513
H   68.653564   34.340328    7.586009
H   43.034191   12.471472   25.182476
H   35.946796   32.100342   27.199226
H   50.070980   61.478027    7.528238
H   19.058685   96.138428   32.189529
H   98.810989   55.138550   58.246929
H    2.073869    5.373420   60.900452
H   27.786295   93.133110    3.389726
H   19.192461   34.050713   38.223618
H   27.130768   26.384418   88.910454
H    9.827862   50.997562   70.003319
H   89.091087   62.012794   83.668564
H   57.324196   64.583481   87.358597
H   36.187542   42.785927   66.694031
H   10.463749   78.843704   42.330715
H    2.503304   17.180088   29.475637
H   83.182770    3.877197   48.666809
H   41.430496   83.697449   95.703445
H   10.159773    6.836471   91.616562
H   96.161018   60.678726   33.309589
H   68.290977   90.514091   87.399536
H    5.878821   32.253357   80.495399
H   12.703704   25.611488   55.001579
H   63.162109   81.605209   87.216614
H   80.359352   18.604786   98.705353
H   90.364006   38.346226   17.414856
H   86.578941   43.837955   37.904724
H   85.003510   36.637745   11.464659
H   51.785564    5.626749   90.364372
H   87.933754   33.524418   93.625771
H   65.703323   38.210579   34.491966
H   44.075394   99.703201   86.827835
H   52.088013   88.615173   17.531158
H   48.433922   20.955114   78.207947
H   18.460770   94.648582   41.702511
H   20.884886   23.103004   87.890144
H   94.625717   59.088654   14.482106
H   21.778933    8.428245   48.127434
H   65.504295   60.371906   24.999855
H   96.946640   15.169621   72.518318
H   64.509506   29.217472   67.548630
H    2.593141   40.989998   77.213181
H   81.947968    7.431061   63.222733
H   21.795155   31.763187   45.400337
H    5.137477   26.145594   85.784592
H   38.904167   40.000351   72.504028
H   56.151886   26.930269   15.858789
H   22.294649   58.319443   45.712723
H   25.138239   23.270054   42.230774
H   84.443382   66.196480   74.880135
H   62.018620    3.956869   42.000858
