100
TIME:    1.197, STEP:  1197
H   36.373695   12.250269   98.050125
H   67.973503   69.645912   53.506618
H    0.330670   60.020931    9.285126
H   81.677521   83.333153   74.552605
H   84.449631   68.702354   33.248848
H    9.454762   99.911293   97.288170
H   90.235802   42.165279   84.059731
H   25.804459   92.158035   98.288826
H   24.203453   71.206696   24.739813
H   42.128410   33.570503   54.564987
H   88.913010   14.406177   24.448706
H   10.152821   83.690239    7.725611
H   67.119888   89.287086    6.157267
H   95.813545    1.386689   48.333004
H   95.060173   63.103596   93.233231
H   53.395706    7.037579   33.679184
H   27.829704   61.156509   82.339531
H   26.723595   36.490677   58.048630
H   63.903496   28.568872   26.425318
H   60.266762   80.394638   97.830009
H   93.244965   37.052467   24.755978
H   77.123955   45.679840   17.332432
H   69.762352   84.887093   98.101624
H    7.827299   51.037876   18.174339
H   86.772820   91.242531   45.394112
H   41.170422   91.942719   76.977570
H   58.861008   92.718887   23.719358
H   31.541901   12.311460    6.338598
H   37.198700   57.693089    0.590285
H   46.891171   61.214188   78.546837
H   63.188328   29.385401   14.691837
H   41.336399   19.441544   88.451805
H   54.673626   80.904274    5.632168
H   28.678017   64.024818   21.323423
H   51.018517   68.436104   97.618576
H   76.629211   78.514664   16.525625
H   94.607109   60.699562    2.784314
H   14.517853   37.045658    6.911180
H   96.906937   54.955574   27.400009
H   50.448967    0.123572   32.211224
H   53.438652   97.254875   70.545334
H   24.041649   65.581779   59.037174
H   21.551298   70.677994   87.933784
H    2.923323   32.831390   97.770638
H   52.824020   84.663071   58.540359
H   62.644535   85.747719   88.032234
H   48.719288   90.311737   37.851509
H   56.303341    7.707654   42.641491
H    0.022148   33.313606   96.724442
H   50.994709   48.968502   99.946129
H   43.453297   54.081062   66.037842
H   63.304787   52.666897   95.480240
H   33.709770   28.949341   33.349495
H   48.971287   87.674828   84.637344
H   45.467278   63.441357   10.563488
H   95.063950   11.273956   51.878098
H   72.135330   55.008110   69.832085
H   36.927185   63.845833   82.723099
H   84.681786   89.344254   19.588642
H   80.028671   19.792929   29.564049
H   35.208843   22.906021   21.068596
H   56.427277   16.803848   41.194901
H   55.425552   25.527340   51.439308
H   25.234713   48.305870   94.640404
H   79.833931   65.242821    7.035100
H   27.811562   82.766701   16.961332
H   91.530655   89.746277   24.853939
H   97.680641   85.994431   23.426123
H   16.559654   63.777542   85.158730
H   54.633469    8.348116   99.212585
H   84.021660   13.956957   47.791294
H   75.268387   11.799402   44.260628
H   28.945591   59.096195   31.055798
H    3.845083   73.632034   32.067329
H   19.884464   30.346888   92.138237
H   53.958897   84.289452   15.387080
H   75.635368   22.798780   12.214537
H   88.217560   72.452873   80.546265
H   18.927393   49.995945   31.035435
H   40.822464   43.763329   17.798431
H   34.306309   41.665173   51.530254
H   31.134708   52.044876   86.684769
H   93.535164   27.235434   43.908146
H   32.512814   14.590432   54.097298
H   94.044968   74.011856   31.716637
H   23.741673   53.023869   24.906731
H   47.099648   16.321281   80.620621
H   75.224503    9.459896   83.299492
H   80.523384   27.524759   18.406620
H   60.507126   60.029396   67.005424
H   73.008705   38.066288   58.740185
H   66.852837   85.532173   56.328766
H   62.085701   63.494804   11.517885
H   62.923355   85.839851    7.526646
H   35.897663   42.510040   43.591698
H   92.788849   48.462456    5.622259
H   67.590134   36.373684   68.348495
H   11.260125   26.429413   36.884453
H   51.689659   42.010090   44.783649
H   13.579178   47.957951   82.397530
