100
TIME:    5.604, STEP:  5604
H   38.346352    8.106673   94.015396
H   45.705818    8.535371   31.455238
H   76.087646   77.078369   57.563999
H   82.417221    1.764589   32.988243
H   44.976532   21.942736   13.758101
H   41.119366   95.136864   33.729015
H   59.263119   39.746929   28.693178
H   79.422943   73.418503   93.652794
H   15.870918   47.491684   47.335587
H   21.697660   96.848503   27.136168
H   78.984604   91.731827   99.944237
H   41.952705    4.590282   94.030663
H   86.464096   22.705719   68.180107
H   77.604439   87.802773   83.706963
H   48.664375   69.455643   81.393707
H   76.198914   21.582840   67.860077
H   73.466743   52.630833   83.542572
H   20.905569   22.146988    5.262659
H   32.552517   13.446879   58.601002
H   41.534676   86.806190   97.879036
H   31.727409   98.320740    5.142532
H   99.641281   51.523376   42.045898
H   10.921828   49.045250   72.013138
H   98.365257    3.868380   90.871292
H   29.152313   41.734962   77.926674
H   21.000128   60.992569   63.441818
H   78.840179    9.524559   11.157568
H   59.691654   18.015465   52.012840
H   33.024834   57.530613   92.268707
H   15.875795   52.140800   28.890118
H   36.607796   24.577339   66.008293
H   19.597050   97.681366   80.473717
H   65.096672   58.466896    2.649533
H   14.883615   60.149559   35.662743
H   41.471695   35.300766   65.971283
H   59.783665   24.358185    1.807692
H   17.295864   99.303833   50.038555
H   32.368793   56.400097   17.900806
H    8.524489   59.315056    1.243435
H   35.359463   87.555565   78.946007
H   52.257736   48.468491   74.373512
H   27.964706   63.370110   66.075462
H   59.511372   97.105469    6.257374
H   21.509792    6.705880   28.665670
H   70.549385   10.787932   35.660259
H    5.786570   69.804550    5.928046
H   85.515915   29.603119   79.258812
H   56.538700   53.089355   15.321647
H   28.840729   68.325623   20.927666
H   43.410519   16.027815   91.713547
H   43.117069   28.613771   12.502213
H   77.476631   43.730267    6.168781
H   25.115559   54.502625   77.398216
H   46.914406   15.766881   79.105797
H   94.595726   49.713184   48.013279
H    0.575494    6.638859    1.853423
H   51.520142   27.845909   88.974403
H    8.770429   47.659218   69.209091
H   32.252251   75.551720   81.261436
H   89.212875   58.531239    4.219490
H   13.204990   17.960407   77.463493
H    0.020998   75.780838   41.791603
H   54.516842   24.876356   49.187347
H   27.855820   72.290497   74.992706
H   54.756432   13.261581   17.445192
H   57.083366   63.681633   77.535545
H   37.949493   42.106853   37.624039
H   93.259010   38.036594   34.106205
H   36.205013   47.118629    8.758636
H   43.921341   30.006645   89.932709
H   44.080925   14.104591   94.923470
H   11.892078   65.539093   66.921646
H   41.600464   41.108856   18.060539
H    6.845242   94.742149   70.182945
H   32.363033   36.629910   26.219574
H   58.143105   66.737968   18.851713
H   75.762383   40.828716   90.157753
H   95.266434   84.288902   23.927301
H   30.245197   37.058010   80.207298
H   24.698437    3.742526   38.131561
H   20.533411   87.257614   14.927176
H   61.806328   80.813599   18.166193
H   72.341240    0.837996   63.641285
H   35.696274   91.705246   51.577549
H   79.460625   98.350563    4.507498
H   22.314121   14.897582   30.942108
H   41.433220   95.896324   90.763794
H   46.156731   56.636684   37.472977
H   71.982040   82.150719   82.357307
H   70.870514   78.712570   24.547392
H   53.361443   76.030609   51.808025
H   92.938148   16.953783   40.304863
H   44.680603   95.666634   52.370502
H   88.872810   53.161327    4.668275
H   59.701881   47.758007   44.859409
H   56.789017   74.435944   77.994949
H   17.783300   89.282906   14.898202
H   27.435160   63.952377   66.355782
H   41.751343   61.006939   75.643806
H   87.297180   34.827045   57.890400
