100
TIME:    1.487, STEP:  1487
H   16.762739   85.655899   97.784622
H   59.906639   85.368111   71.799767
H    5.314913   80.885033    5.879930
H   81.726196   71.385521   58.657085
H   81.852127   91.947136   25.385536
H    4.957618   99.597115   26.008039
H   75.035759   61.748333    6.738182
H    3.011032   17.246830   71.663307
H   17.074699   43.324463    6.485091
H   34.203148   37.734474   65.921501
H   61.937912   26.074955   96.514359
H   99.083786   98.226524   87.083092
H   48.673698   71.741768   77.332817
H   81.454262    0.492622   70.402290
H   98.586937   37.201572   79.294327
H   41.735703   81.672600    9.607066
H    4.514934   80.334671    8.743539
H   32.920876   22.388046   47.994919
H   68.421425   40.735542   41.702801
H   52.454338   74.234970   17.574472
H   76.035950    8.181236   16.884922
H    4.931058   46.062607   92.639381
H   65.890434   82.528542   89.804657
H   80.883095   54.515965   96.636093
H   76.400505   68.241127   47.533623
H   39.840694   83.300598   49.795654
H   33.852844   80.665054   29.474134
H    7.073583   25.847836   15.924312
H   43.504395   84.004425   86.881523
H   58.011318   54.036758    1.601275
H   74.596107   55.391525   91.744171
H   59.647251   11.429677   61.605034
H   75.100662   59.686165   31.757658
H   40.930977   37.447975    9.106657
H   43.810112   46.514412   15.277046
H    1.843213    1.294885   15.527654
H   22.421997   50.079445   25.634954
H    2.532055   31.737812   27.375050
H   83.870743   48.764931   99.604355
H   23.134993   72.975883   55.028988
H   33.621071    7.205820   77.377609
H   97.978088   78.595848   72.661896
H   24.049238   72.417038    8.881368
H   84.404625   37.692307   26.125330
H   27.669640   73.219894   83.356522
H   58.903156   91.279030   89.209297
H   51.781422    5.955019   40.329536
H   56.318829   10.693457   60.585064
H    8.498540    9.296654   85.157364
H   57.076939   53.382488   79.661705
H   43.431171   26.083544   69.095551
H   77.398567   25.756220   76.443680
H   39.725624   30.630859   16.506565
H   42.256275   82.944450   97.434586
H   22.379585   88.863312   13.024368
H   95.426804   10.969181   42.005814
H   90.521408   46.640343   97.413414
H   15.332109   36.459206   75.253616
H    7.554161    1.597300   97.325241
H   60.890697   42.084110   21.315758
H   53.501995    9.420415   98.458275
H   46.134613   14.104179   28.072418
H   75.095856    5.750722   31.544289
H   45.149269   49.883400   86.768242
H   91.343483   42.080021   34.042362
H    9.996502   68.349892   34.108395
H   68.263748   99.773438   38.855358
H   77.648445    2.579662   37.289799
H   31.014076   42.939987   66.971779
H   60.507721   22.934473   98.601929
H   74.813133   94.224876   44.313206
H   51.356594    2.174368   65.494072
H   10.036251   44.752399   23.619503
H   97.463097   55.280304   14.831764
H   33.866364   30.759523   14.122494
H   60.815510    2.874865   95.873833
H    1.964503   97.663559   17.345705
H    1.842294   53.490311   96.560516
H   32.828682   49.146336   34.269814
H   26.600357   27.968401   92.814888
H   39.981434   44.665356   68.863167
H   52.894840   53.938797   62.435501
H   11.885009   32.075348   71.529297
H   52.463146   39.406109   27.608955
H   79.924637   55.872589    3.604543
H   17.066486   63.677174   45.045128
H   66.468086   95.235901   94.448898
H   79.892929   86.241898   80.286034
H   86.541451   11.378703   16.033688
H   34.867477   48.097252   77.373314
H   84.876686   53.724323   64.864456
H   88.309898    7.342874   61.853439
H   80.693031   72.185471   33.953781
H   90.951698    3.429667   27.079823
H   30.883835   16.532791   50.255821
H   16.741730   37.010429   90.643295
H   44.571030   53.016293   51.670486
H   12.324903   28.898590   32.244789
H   37.874657   43.260166   20.492344
H   31.589127   40.508381   54.466621
