100
TIME:    7.886, STEP:  7886
H   84.024406   98.837547   91.926163
H   82.684830   32.194820   75.343582
H   15.324053   41.253952   30.769981
H   82.800247    7.746685    7.903502
H   24.533686    4.854962   51.882996
H    5.725533   92.664604   59.723862
H   39.664783   93.837524    7.148640
H    0.062242   70.840355   84.127525
H   59.774940   28.086590    3.690851
H   59.365150   29.616274   16.487999
H   66.718521   83.553024   80.129700
H   54.856308   18.974773   31.594421
H   40.885750   84.656693   41.417835
H   64.613609   80.769020   57.369198
H   76.389351   65.616440   71.662628
H   84.443848   21.990723   78.433868
H   89.961739    3.569350   91.282043
H   69.704544   11.106180   26.158604
H   68.088898    9.179273   78.826447
H   80.053329   38.345196   53.248146
H   96.310310   71.141724   43.203350
H   18.418840   54.552765   47.712524
H   80.452736   30.486605    6.721843
H   86.334961   31.167696   21.390560
H   47.535225   60.762032   94.779823
H   10.424221   93.624191   48.775139
H   82.060684   14.664670   56.441235
H   67.142998   24.531515   27.441023
H   82.644127   64.571579   84.397057
H    3.378043   95.660629   10.303196
H   26.418619   29.208843   85.463860
H   63.684139   34.629452   69.217552
H   25.835817   91.505470    8.230115
H   11.303748   51.017830   39.525940
H   84.694832   62.589165    4.841607
H   58.154102    3.093887   94.633736
H   36.169170   15.732801   29.851164
H   38.049446   14.632982   78.934090
H   12.200341    9.595224   80.100517
H   20.420734   73.922974   58.489578
H   96.299820   26.770697   28.135221
H   35.624901   72.528107   82.554100
H   79.154144   10.793621   71.086586
H   75.795212   45.008568   51.786137
H   72.602974   20.751942   30.936749
H   76.330406   13.327903   15.199018
H    3.346076   53.705879    1.161685
H   56.668941   76.593231   56.518536
H   95.547737   79.331306   29.897686
H   91.308350   50.763401   32.142891
H   42.960102    8.300898   36.556793
H   88.387833   31.976202   56.370087
H   72.450996   67.734436   44.864845
H   94.072266   78.538162   79.804092
H   12.899704   49.696693   67.422668
H    3.417763    4.238417   24.168747
H   96.190826   61.999245    6.011647
H   38.847580   32.152351   10.429210
H   12.226143   71.980675    6.077606
H   38.623840   33.932484   39.313988
H   57.155682   11.836559   99.542213
H   19.028389   54.540298   38.537849
H    9.440661   69.156525   92.703766
H   84.557549   84.721436   13.032821
H   45.332306   31.002264   29.958185
H   16.898705   50.236870   12.466107
H   54.860107   21.002415   47.798687
H   35.625908   68.546074   43.199005
H   49.940353   83.148674   65.638000
H   90.185310   44.736950   85.117523
H   71.616264   58.838898   67.554512
H   23.874763   89.753319   34.087025
H   92.808762   28.238817   59.555248
H   56.604031   50.314030   34.593628
H   42.347198   39.926914   99.223633
H   12.085210   12.991024   65.300301
H   82.999718   43.247627   30.600214
H    2.478694   35.076321   49.954884
H   39.675049   30.355053    5.664068
H   12.788648   79.431450   41.535194
H   65.196571   10.866647   51.318359
H   33.055862   95.612473   27.261780
H   16.681337   38.999912   80.966049
H   92.693703   86.981079   43.152584
H   68.347519   55.603039   83.293816
H   69.797653   98.719086   89.410873
H   93.842888   29.976036   99.578163
H   82.857597   74.029236   13.812408
H   19.341183   55.092186   63.693489
H   69.111267   84.824478    6.123502
H   46.750324   99.253670   99.999680
H   61.783039   88.582230   83.786247
H   90.961395   64.140068   28.841066
H    9.417711   91.607384   58.539639
H   20.247597   43.350212   97.299164
H   45.272873   84.322815   60.126778
H   36.648399   20.240612   83.657433
H   23.055513   76.657951   20.569902
H   33.042046   70.855858   84.502144
H   29.041170   76.264755   38.057026
