100
TIME:    9.605, STEP:  9605
H   67.775055   41.197182   90.352371
H   35.208786   25.344662   83.731255
H   44.871990   64.926064   10.591784
H   83.088776   36.925346   13.679318
H    9.130201   42.640091    5.275543
H   79.073853   90.802284   29.960857
H   49.571201    9.912929   41.576687
H   64.952240   19.556866   26.294342
H   17.518639   62.810364   95.486519
H   12.410967   54.298573   83.795326
H    6.821307   52.719040   14.545042
H   89.244469    5.139631    9.234947
H   31.270782   80.610420   70.588531
H   79.499573   75.470589   88.184563
H   97.268318   12.066872   88.996117
H   15.326588   71.640488   35.742249
H   51.730080   17.267494   47.769394
H    6.464301   27.459450   66.567947
H   94.869583   81.295120   69.390167
H   33.739971    1.840931   70.285667
H   94.301910    0.009293   96.546982
H   83.221054   56.834763    1.323823
H   57.501610   16.512648   57.540405
H   26.614536   51.731903   93.723175
H   86.055038   24.435799    7.471408
H    2.316623   42.948105   87.008720
H   33.828819   43.208843   90.542953
H   22.099932    4.768636   84.262810
H   20.022808   20.532743    3.139188
H   69.291451   53.115799   46.958260
H   94.072166   83.354523   49.462067
H   72.222916   87.135910   10.081078
H   46.921288   65.734879   63.091209
H   83.935883   93.481834   67.108055
H   41.913933   32.436684    9.428145
H    7.583868   37.738422   89.230385
H    1.043898   52.779549   65.301773
H   66.997536   83.178703    0.240359
H   39.642345   72.140648   13.516659
H   58.509022   12.994462   93.735916
H   78.817963   85.753372   68.634117
H   90.756538   79.269638   70.310539
H   93.947784   21.106857   95.252403
H   66.039589   73.868874   19.859623
H   23.492010   52.939091   78.038956
H   54.145775   46.111492   22.182718
H   16.785465   47.193501   17.669687
H   56.773861   94.298386   62.880146
H   45.792442   36.963955   61.328743
H   27.392126   76.934166   11.950893
H   44.763920   42.487770   51.728638
H   71.931976   72.467041   43.527748
H    8.099537   77.701782   45.029518
H   54.258553   50.492126   55.658089
H   76.030342    0.340548   82.032700
H    5.558775    2.430196   65.649918
H    5.168147   12.398344   69.502861
H   10.848060   69.813316   66.152367
H   47.805843   44.616493   74.110115
H   25.188198   66.061539   90.421547
H   65.595245   31.894663   65.520638
H   58.017693   38.540085   60.761330
H   26.145443   51.857712   74.827866
H    2.597528   94.085495   66.366882
H   13.561091   93.707100   90.040154
H   11.299456   64.780602   14.107354
H   16.941345   80.431000   30.792274
H   16.882904   66.857613   25.377151
H   35.614182   59.632294   57.825207
H   25.097534   31.078600   81.471573
H   17.022442   41.873455   46.937843
H   82.318474   32.677147   60.087231
H   80.728226   43.207150   15.475971
H   18.767460   41.519535   32.456490
H   25.152880   42.458096   29.559042
H   52.728058   23.162777   49.634064
H   39.122017   94.462570   61.092125
H   83.232399   22.681374   44.898964
H   22.108625   25.305805   24.849443
H   28.486778   85.789040   93.441994
H   98.849480   28.650492   54.061195
H   62.046181    6.767119   83.449242
H   25.410524   67.747841   44.675137
H   10.958196   34.080276   86.149101
H   84.648041   48.068886   16.657084
H   30.231831   61.863884    8.783589
H    8.651155    4.990176   81.546593
H   10.503006   36.475563   95.992111
H   55.016117   59.381111   49.634285
H   17.127592   14.099525   67.569992
H   17.099508   92.072632   36.302147
H   88.971634   17.867323   16.541025
H    1.152644   15.711912   61.773979
H   73.627602   95.750656   77.400963
H   90.525116   89.371956   36.797340
H   87.255188   16.441446   71.338120
H    0.202990   18.889603   84.795502
H   19.737436   61.714207   86.055321
H   51.152916   78.278908   40.518497
H   35.814728   32.155605   72.460434
