100
TIME:    7.536, STEP:  7536
H    7.693596   30.933372   92.246597
H   92.351273   13.227862   53.275021
H    9.307894   16.073978   34.879154
H   82.741501   22.167576   27.088467
H   27.669939   76.800972   61.373199
H   11.153562   93.043785   25.061119
H   58.006992   70.205475   79.778168
H   27.571556   40.561352   16.262794
H   68.378609   61.737717   25.722126
H   68.924782   24.590792    2.782858
H   99.274673   69.469925   13.844191
H   68.214920    1.431532   56.508186
H   63.204018    5.842197   76.199272
H   81.943779   81.847816   30.733074
H   72.138252   96.880173   88.496124
H   98.516266   52.602905    7.486856
H   18.106941   80.418304   59.420162
H   62.221760   28.137085   38.290367
H   62.636837   94.496536   60.385960
H   89.484787   45.776608   29.418497
H   17.079788    5.984066   52.701565
H   84.863998   54.088135   77.518280
H   85.125740   33.332420   16.736139
H   18.854521   26.980684   47.385269
H   60.053535   88.517319   92.194984
H   12.074459    3.941658   81.711708
H   12.240839   29.213797   49.495815
H   96.676384    8.194694   15.871993
H   75.033806   32.816517    0.942099
H   89.957382    4.323372   82.479210
H   12.643775   97.823792   13.154671
H   41.584835   44.298565    1.618816
H    1.181982   17.112738   76.699348
H   96.515175   83.093330   54.271271
H   93.405312   89.089104   83.548233
H   27.729027   75.680542   95.733894
H    2.599862   28.551519    2.272751
H   52.514397   21.038860   54.234978
H   26.974873   17.220232   14.018028
H   53.385910    6.687819   30.950949
H   20.219240   14.762410   19.889372
H   65.120903   71.155579   64.684532
H   76.142059    8.694107   45.806217
H   98.145523   39.133934   17.565830
H    2.964016   34.560001    0.985462
H   80.848534    6.653450   13.777090
H    0.610033   34.672066   97.801720
H   56.647579   72.988342   34.862499
H   85.315193    8.319256   43.860420
H   83.959717   45.436176   56.616081
H   42.984135   42.091660   32.866455
H   71.378098   64.454880   79.345245
H   65.193153   65.705017   65.191078
H    2.178535   84.247238   64.359146
H   40.767746   19.023659   64.447968
H    2.981838    4.606583   36.083572
H   74.000732   72.098274   72.723732
H   64.909592   65.205177   19.445024
H   84.621391   57.191387   32.947334
H   61.719162    7.029345   49.268822
H   35.077740   28.113129   26.830315
H   31.450569   57.798050   54.375328
H   85.679817   93.039581   16.704315
H   60.524570   82.814850   22.536167
H   31.438850   58.957462   97.363426
H   38.398926   67.636467   91.770981
H   82.940857    8.902395   30.901018
H   59.802696   48.529594   26.466980
H   32.495361    8.297424   87.587769
H   83.077003   27.158442   85.859863
H   82.730003   82.652527   71.752205
H   52.695560    1.374483    8.432538
H   15.629763   45.550587   68.528870
H   64.307915   72.465088   55.389832
H   25.487516   39.411549   72.686310
H    3.810489   90.559715   88.852242
H   51.212605   73.541206   24.393129
H   86.035309   57.960789   30.624666
H   22.892286   31.383114    1.758099
H   29.952049   98.497307   71.688087
H   58.344612    7.245736   30.399323
H    6.792515   93.342728   56.541706
H   94.543358   33.146641   47.634201
H   68.613045   57.031124   75.119530
H   85.389297   77.498375   17.222132
H   77.851242   85.864319   65.105911
H   70.467186   55.423882   82.888863
H   77.228630    2.035315   17.441330
H   12.076665   74.579948   66.556038
H    0.054571   99.222672   93.611359
H   32.426899   80.353371   92.608322
H   35.886585   62.258530   77.115868
H   68.525635   53.637859    1.775028
H   75.590950   70.373253   34.939632
H   26.299805   74.701157   89.256256
H   16.364334   98.144226   78.204628
H   64.430077    0.155514    3.786191
H   23.731096   59.339184   27.596766
H   49.715324   69.344475   13.817806
H    7.302088   85.247604   71.774139
