100
TIME:    9.533, STEP:  9533
H   72.644196   47.799965   90.418289
H   37.197311   21.442867   79.191704
H   43.634380   59.746010   11.437044
H   83.076691   39.891655   17.625963
H    9.775373   36.868973    7.227676
H   80.190063   90.880287   22.830456
H   53.344456    5.050929   35.946194
H   70.611298   13.328108   32.905365
H   19.288536   69.732849    0.018385
H   14.377794   53.264759   80.976234
H   13.518585   49.821945   21.480436
H   91.992149    1.530781   14.359795
H   35.861969   84.968697   77.743927
H   83.064636   75.692513   82.705681
H   96.393806   18.498268   92.459007
H   18.221760   77.937851   41.718811
H   57.519875   12.505369   41.214951
H    4.924567   30.962990   69.064041
H   93.747879   78.274979   65.595413
H   35.679607    3.369951   65.383568
H   98.574493    7.177181   98.501450
H   76.318344   56.739182    7.455237
H   58.462914   17.097944   59.600342
H   33.304440   50.870575   99.070221
H   88.630234   30.145943    6.939945
H    2.656272   45.070663   93.783989
H   40.037743   46.202068   89.114731
H   28.175097    1.407921   81.883171
H   18.457256   14.000505    6.542546
H   66.530586   54.897781   41.234383
H   91.238792   76.897858   55.158478
H   67.676773   89.125534   16.746483
H   41.849449   71.002823   56.604881
H   80.893768    0.080222   70.141380
H   43.705803   37.888100    5.047438
H    1.325231   32.098591   89.456703
H   94.137939   55.416267   59.628437
H   69.973732   84.495964   95.159203
H   42.681713   73.709496   20.493801
H   65.290436   19.735062   88.071365
H   83.738739   83.282547   66.937828
H   96.824425   78.986832   66.635887
H   93.328156   20.674820   90.051476
H   70.636269   72.660378   12.820132
H   29.739103   55.782078   71.878616
H   55.074669   44.738201   21.890207
H   16.222416   43.277424   16.978373
H   56.769466   93.556808   58.425190
H   43.688011   42.926785   64.201080
H   25.880957   75.837730   16.985214
H   44.362919   49.408607   51.593506
H   68.432831   79.147827   48.254066
H    6.606083   77.284302   49.211464
H   55.925728   51.667114   52.480843
H   81.763008   94.031082   81.420761
H    5.469099    2.505933   68.100967
H    0.603765   14.475996   62.655083
H   16.209246   76.612755   68.006859
H   42.127010   41.573830   79.637337
H   29.939236   60.527378   92.469398
H   61.053143   35.242756   71.133553
H   60.573112   39.210251   64.019325
H   21.255634   56.768333   79.764038
H   97.653503   93.693283   68.321350
H   10.703273   99.457344   83.335197
H   15.722414   68.359947    9.850015
H   22.718231   77.941498   27.315926
H   21.856415   62.739937   21.935135
H   32.025497   64.805756   62.341137
H   23.635254   27.462450   81.624283
H   19.308971   46.772808   47.801369
H   88.247795   35.067772   54.809948
H   85.422684   46.768368   17.322224
H   20.352238   46.076115   36.734566
H   21.684771   42.352077   24.099936
H   51.025726   18.548244   54.478485
H   32.582954    0.694081   59.814964
H   79.849709   27.389015   40.922462
H   18.656172   25.517292   24.045794
H   32.017509   89.711159   99.644875
H   97.439934   27.905619   49.757851
H   56.643654    6.299720   89.473045
H   20.856417   66.543739   37.818020
H    6.004735   27.918961   92.725517
H   88.153778   52.572731   23.636423
H   31.889118   59.218925    3.783576
H    3.842381   10.225259   78.113365
H    9.345184   42.236794   96.738083
H   53.521976   63.390022   50.223152
H   23.493345   17.061989   64.995895
H   14.152889   88.184570   34.781639
H   83.644363   12.452347   15.169381
H   96.537308   13.551451   56.206108
H   67.075356   91.413254   71.922081
H   91.769867   95.820930   35.142799
H   81.308289   19.284433   75.056992
H    5.917935   14.757878   88.936249
H   19.876413   58.151890   87.501122
H   54.582848   77.967995   46.549442
H   31.342743   34.002956   79.396103
