100
TIME:    5.330, STEP:  5330
H   56.876137   33.233101   94.266251
H   53.273262   93.687927   14.178679
H   71.375763   57.365387   60.781208
H   82.371231   13.054085   48.008156
H   47.430725   99.980515   21.186687
H   45.369259   95.433708    6.593628
H   73.623848   21.244320    7.266014
H    0.958806   49.714016   18.810551
H   22.606361   73.835587   64.583855
H   29.184622   92.914268   16.405867
H    4.471405   80.706772   26.337250
H   52.411247   90.856163   13.533957
H    3.948624   39.275246   95.406181
H   91.171486   88.647316   62.856659
H   45.332191   93.930679   94.563568
H   87.215607   45.547806   90.604218
H   95.500130   34.508686   58.599274
H   15.046111   35.478588   14.760637
H   28.284988    1.951609   44.166416
H   48.916069   92.626015   79.223824
H   47.986961   25.598892   12.579323
H   73.372635   51.159637   65.379547
H   14.580646   51.273674   79.852341
H   23.823803    0.590548   11.220542
H   38.952057   63.465233   75.903114
H   22.249174   69.091766   89.208710
H    2.466607   20.914696    5.720710
H   82.811684    5.226067   42.954903
H   27.067039   32.670933    5.220834
H    5.369696   58.922234    7.108621
H   25.823742    0.007523   87.686302
H    2.296780    5.251717    5.839233
H   45.795628   78.514351   77.965446
H    3.306157   85.260094   47.206230
H   48.282394   56.012985   49.287125
H   35.965031    2.896794    2.669373
H   91.015442    9.338932   28.448345
H   43.692783   61.415096   98.565712
H   20.090633   65.285393   27.795393
H   61.166119   13.206245   57.388599
H   70.984024   39.067719   67.918190
H   52.590446   51.071960   53.204197
H   57.151249   95.462372   86.465370
H   39.004803    2.106627    1.875682
H   94.317848   21.597923   12.212844
H    9.322409   64.578415    4.814879
H   83.375290   14.701318   76.629021
H   56.524067   50.267242   98.368156
H   20.832199   91.019592   31.857605
H   37.663860   11.857359   10.877724
H   43.137974   55.066513    9.613729
H   64.160439   69.156036   24.157112
H   19.431614   52.913879   93.310753
H   53.258934   20.238335   67.014610
H   16.412399   25.700411   45.682423
H    0.234207    6.927080   11.181030
H   34.150558   35.752007   62.914803
H   29.172401   73.534859   76.266464
H   10.643095   63.974777    2.295624
H    7.294666   37.469913   12.012703
H   95.920715   30.702770   98.827934
H    9.744909   78.331192   54.190086
H   35.913891   43.573776   67.976349
H    9.040687   70.797913   82.430542
H   43.879799   35.145649   91.928398
H   73.915703   77.303032   61.334526
H   59.932709   32.635006   24.395042
H   12.186318   22.365908   21.007421
H   22.548079   66.806526   25.944038
H   38.371185   16.225327   90.509674
H   52.781395   32.747314   98.209663
H   34.484451   74.632568   46.859863
H   59.465485   54.661270   25.086555
H   12.876202   12.083717   86.463402
H   19.152437   36.238995    5.447809
H   51.664787   49.176392   37.288174
H   50.884876   64.578316   85.312080
H   82.393417    2.204240    8.794753
H   17.106693   37.862835   77.151054
H   38.133217   18.667938   61.736969
H   15.171476   84.422958   98.551064
H   41.242554   79.036514   41.086517
H   55.010292   96.255798   37.546146
H   16.845808   68.258713   76.603424
H   92.801903   15.489556   31.068581
H   28.621021    4.833091   11.914683
H   23.133383   15.818512   77.698456
H   41.750038   78.562256   40.313972
H   66.296005   97.406853   84.598274
H   95.094696   89.984299   14.752636
H   42.148247   61.234768   46.021648
H   72.664925   96.346634   35.084999
H   27.116610   87.446968   31.181660
H   62.391068   36.538036   86.192909
H   64.438850   72.301323   38.562962
H   34.157761   85.256134   92.147324
H   39.531700   73.558510   30.656082
H   26.429617   61.619446   70.741554
H   54.804138   59.825832   98.592812
H   70.276703   41.857243   84.284958
