100
TIME:    3.315, STEP:  3315
H   93.142731   18.018822   96.111038
H    9.057102   84.479065   87.109238
H   36.736603   12.398536   84.427330
H   82.033020   96.071281   58.458027
H   65.478897   38.469372   75.821625
H   76.616829   97.616707    7.041136
H   79.230507   85.182289   49.690254
H   59.333832   75.391037    3.820990
H   72.138908   67.569641   91.419304
H   84.251137   63.981850   37.502251
H   91.901810   99.628967   20.432238
H   29.316292   89.854645   56.963570
H   32.395584   61.145279   95.645256
H   90.941872   94.858101    9.512333
H   20.823757   73.918228   91.423042
H   68.235428   21.787201   57.867531
H   57.534584    1.233154   75.165878
H   71.982262   33.492332   84.618347
H   96.900246   17.420809   38.008938
H    3.209129   35.418095   42.033226
H   67.559921   26.198547   67.265549
H   80.192627   48.484695   36.975388
H   41.484001   67.661537   37.505157
H   11.042130   76.439911   60.873966
H   11.021131   23.263046   61.021828
H   31.458376   28.834040   78.455742
H   76.223267    4.675515   65.748390
H   52.831203   11.172684   76.349083
H   83.252014   49.854538    0.471226
H   28.104546    8.793649   46.921295
H   46.521992   19.318258   47.106697
H   75.068367   60.918831   92.377922
H    3.860995   25.940800   96.438332
H   18.167805   69.922798   32.094452
H   98.368378    8.331563   26.588852
H   60.781200   44.895939    9.244187
H   97.750984   83.132797   69.674370
H   26.976936   98.281181   56.370754
H    5.144050    9.189726   23.063951
H   50.957020    1.843555   98.851173
H    8.695360   69.927429   20.445662
H   33.687859   60.639153   58.542572
H   39.794872   83.379013   40.919453
H   67.673935   68.330872    4.857440
H   69.103020    1.099899   39.784725
H   35.319569   26.145344   96.628853
H   67.633102    5.118185   57.284164
H   56.416454   29.514303   73.691353
H   61.927711   57.900276   12.236695
H   95.404533   81.197197   51.808125
H   43.291706   49.601852   88.369659
H   66.235474   56.132668   56.439480
H   77.641228   41.230225   10.338818
H   99.928520   53.121674   78.098602
H   76.847885   49.102554   28.542822
H   97.714035    9.047613   79.776382
H    6.409290   93.893562   71.271507
H   79.214592   63.826797   28.169552
H   51.722984   78.835327   56.989758
H   40.262604   82.590012   69.324104
H   68.813393   24.409962   55.931377
H   81.258781   97.086533   45.362106
H   99.115211   81.073296    6.150986
H   70.675591   59.827278   37.138927
H   63.902699   96.080055    4.280301
H   97.699623   77.474403   42.192474
H   21.600006   62.968090   27.111044
H   51.376091    7.125144   24.678770
H   22.120773   11.591560   52.322529
H   97.548401   14.877104   94.752686
H   16.765831   69.847130   22.382977
H    0.630804   41.506821   99.330078
H   90.846893   54.331470   76.752190
H   57.238659   39.599716    6.188799
H   22.001471   33.364201   52.697666
H    4.023955   20.032671   72.871216
H   67.936348   39.224518   49.676929
H   87.725052   33.960552   97.513916
H   20.479696   43.781528   54.669014
H   36.951576   28.411327   35.330917
H   75.749710   63.576855   78.118744
H   90.052277   65.877029    9.579031
H   27.538855   62.590363   45.637211
H   78.216278   95.830414   60.641853
H   90.915863   41.529804   26.400246
H   74.998413   30.819092   71.986832
H   88.556068   62.325417   81.615250
H    9.317907   39.887344   61.267670
H   24.479439    9.598644    1.078730
H   73.248627   72.888626   42.720375
H   59.686066   52.431179    3.468533
H   23.569128   44.812073   96.691017
H   97.952652   26.983313   75.358482
H   67.635963   14.311485   50.331390
H   99.274590   52.792835   92.262779
H   67.726990   64.825508   96.224678
H   99.473633   57.921612   46.541084
H   19.035093   44.462921    2.993544
H   50.794426   51.139957   67.371773
H   45.117672   93.566200   78.395599
