100
TIME:    6.270, STEP:  6270
H   93.308182   47.031181   93.405655
H   27.312607   44.626705   73.449989
H   87.540619   24.992565   49.744068
H   82.529007   74.326080   96.482178
H   39.011230   75.325577   95.700623
H   30.789333   94.415337   99.685020
H   24.359959   84.718086   80.775246
H   27.076660   31.036602   32.503292
H   99.499306   83.458389    5.412087
H    3.503809    6.411736   53.213596
H   17.034897   18.529348   35.791534
H   16.531578   37.973179   46.623283
H   43.965134   82.430870    2.002861
H   44.627602   85.749977   34.390041
H   56.761421    9.965515   49.377605
H   49.421112   63.331886   12.576060
H   19.911140   96.683327   44.171181
H   35.148106   89.740997   82.174355
H   42.923199   41.388268   93.690826
H   23.593040   72.660194   43.223351
H   92.206039   32.019093   87.064445
H   63.491348   52.407501   85.329880
H    2.028855   43.628716   52.958725
H   36.484425   11.835665   41.408794
H    5.333728   88.917191   82.845253
H   17.964125   41.303009    0.815118
H   21.409420   81.841141   24.373243
H    3.497914   49.102104   74.027267
H   47.506187   17.955528   60.785736
H   41.412189   35.657463   81.835831
H   62.821587   84.298454   13.316490
H   61.648869   79.277344   18.818718
H   12.007067    9.739573   62.648071
H   43.024666   99.114731    7.606686
H   24.913300   84.943092    6.521920
H   17.678083   76.521919   99.713326
H   81.173286   74.914185    2.516895
H    4.843090   44.210354   64.896706
H   80.414124   44.803215   36.702370
H   72.628845   25.206642   31.344625
H    6.741949   71.320168   90.064186
H   71.812500   66.190948    0.055042
H   65.246918    1.099670   54.362000
H   78.982529   17.884542   93.783409
H   12.780064   84.509689   92.650742
H   97.191246   82.507492    8.633772
H   90.719040   65.821915   85.650932
H   56.574268   59.948944   56.529987
H   48.306717   13.169052   94.360550
H   57.381069   26.165380   45.133766
H   43.071064   64.315491   19.522491
H    9.843409   81.930496   62.449684
H   38.931278   58.364319   38.716976
H   31.493034    4.899514    8.494601
H   41.568565    8.077353   53.678791
H    1.405037    5.938292   79.181198
H   93.743217    8.628411   52.316658
H   59.178375   84.763191   52.055038
H   84.778381    3.691775   30.134636
H   45.262863    9.720441   85.276878
H   55.217213   86.987686   25.537632
H   76.383369   69.581802   11.655328
H   99.730217   79.429359    3.517731
H   73.590195   75.918457   56.911884
H   81.190491   60.070713   79.466637
H   16.170715   30.572685   16.915174
H   84.514389   65.129913   69.777725
H   47.254036   76.125099   65.944855
H   69.399513   99.264130   66.990540
H   57.411865   63.506691   88.530304
H   22.931976   68.790268   86.935860
H   56.976131   43.435974   15.681460
H   98.174942    8.167587    0.982760
H   92.183250   52.590084   30.610830
H   64.471062   37.580090   76.706436
H   73.886482    9.420528   74.037170
H   36.232998   83.116356    1.940893
H   26.556332   40.740501   60.709938
H   62.180393   35.101757   87.635979
H   92.038742   67.463051   80.755119
H   33.566628   94.147690   54.732059
H   11.793245   85.132736   62.455257
H   14.465821   11.974982   27.066422
H   81.515190   48.696800   90.749748
H   47.032555   56.694183   39.946136
H    6.984253   39.361671   77.190979
H   85.913841   47.472710   22.521276
H   56.867851    3.341589   30.567657
H   85.802841   45.068291   76.910286
H   11.986125   51.312511   48.353500
H   80.616875   11.994225   65.872726
H   42.215405   67.043259   52.992561
H   87.372650   15.649747    3.873302
H   53.237980   93.566841   49.575439
H   48.187935   88.100998   60.163914
H   11.797927   48.135773   43.595383
H   64.919212   27.502222   76.595795
H   26.174776   96.698929   53.009941
H   10.024714   63.877804   19.858627
H   28.665064   17.736927   93.731133
