100
TIME:    5.924, STEP:  5924
H   16.706591   78.761223   93.722427
H   36.867928   25.876417   51.633427
H   81.590576    0.100827   53.806675
H   82.470932   88.580841   15.447871
H   42.110321   47.592148    5.081953
H   36.155987   94.790184   65.420799
H   42.493099   61.355816   53.717594
H   54.271576    1.103975   64.272911
H    8.004707   16.725082   27.191835
H   12.955507    1.443348   39.666294
H   49.218979    4.607658   69.119041
H   29.738350   20.629887   71.252342
H   66.044174    3.353912   36.383232
H   61.759712   86.816444    8.058331
H   52.555977   40.871658   66.012848
H   63.332703   93.594215   41.297577
H   47.734322   73.796516   12.673437
H   27.748831    6.576920   94.169472
H   37.535427   26.872171   75.460571
H   32.914070   80.009315   19.666040
H   12.738152   66.465271   96.456749
H   30.319992   51.948181   14.794922
H    6.648854   46.442711   62.857864
H   68.633812    7.696505   67.106644
H   17.708221   16.356544   80.289955
H   19.541388   51.532120   33.351486
H   51.246277   96.222610   17.507200
H   32.692142   32.951988   62.591454
H   39.982841   86.563812   77.141754
H   28.145088   44.220879   54.329422
H   49.203011   53.271503   40.690910
H   39.802128   88.838593   50.849693
H   87.635735   35.053810   31.477659
H   28.405293   30.823387   22.182188
H   33.517593   11.110382   85.458588
H   87.601044   49.422035    0.801307
H   47.987366   87.585083   75.253395
H   19.143532   50.543163   40.481373
H   95.017334   52.342400   70.232735
H    5.219217   57.598988    4.121992
H   30.387711   59.447495   81.912575
H    0.971426   64.834106   82.389702
H   62.267719   99.024414   29.371155
H    1.077299   12.077047   59.952423
H   42.792461   98.162582   63.043072
H    1.657156   75.908066    7.228095
H   88.015915   47.005630   82.330101
H   56.555790   56.385254   35.121449
H   38.193756   41.823761    8.162398
H   50.121944   20.898420   69.330734
H   43.094822   97.719147   15.875627
H   93.028389   14.036182   85.162270
H   31.753742   56.358093   58.813549
H   39.504738   10.545323   93.226891
H   69.117210   77.756424   50.735447
H    0.974092    6.302250   90.959854
H   71.806725   18.612511   19.409279
H   84.942535   17.438902   60.966904
H   57.489067   89.072227   56.696007
H   68.094711   83.126511   95.117943
H   33.391590    3.079346   52.513447
H   88.663582   72.802322   27.311623
H   76.241539    3.039560   27.243988
H   49.830688   74.033661   66.306183
H   67.458405   87.704208   47.245594
H   37.425163   47.773430   96.456444
H   12.274727   53.168865   53.073257
H   71.154518   56.337376   49.404057
H   52.154720   24.125465   88.689453
H   50.403275   46.102684   89.258881
H   33.919792   92.331741   91.085579
H   85.506119   54.918976   90.349380
H   20.735546   25.281219    9.854973
H   99.801628   74.488243   51.169273
H   47.790279   37.086452   50.477676
H   65.708473   87.245781   97.319946
H    4.815353   13.092733   95.816933
H   10.300624   63.365974   41.600639
H   45.589436   36.118069   83.776634
H    9.006708   86.311012   10.563243
H   26.795618   90.568161   34.052097
H   85.824661   82.888794   91.398064
H   92.580498    6.189162   94.114944
H   57.710434   19.088558   22.351475
H   63.879570   78.335915   73.487061
H   14.948399   26.651733   53.163788
H   62.805290   72.629723    6.022671
H   51.303215   31.028822   34.155106
H   78.622665   64.333336   79.740120
H   42.577648   65.548508   35.986176
H   66.457146   93.310883   58.565838
H   16.614908   41.020401   46.401054
H   65.193298    5.267530   77.116592
H   19.799526   72.575386   26.245150
H   54.169655   19.093456   52.212925
H   83.219681   61.799225   61.466629
H   92.383385    7.646910   96.494385
H   26.842638   79.577377   59.955177
H   26.507202   62.386333   48.840668
H    7.174421   26.615795   27.062763
