100
TIME:    9.635, STEP:  9635
H   65.746246   38.446022   90.324905
H   34.380234   26.970409   85.622734
H   45.387661   67.084419   10.239592
H   83.093811   35.689384   12.034860
H    8.861380   45.044724    4.462154
H   78.608765   90.769783   32.931892
H   47.999012   11.938762   43.922726
H   62.594299   22.152157   23.539749
H   16.781181   59.925995   93.598244
H   11.591455   54.729328   84.969948
H    4.030751   53.926163   11.655294
H   88.099602    6.643328    7.099582
H   29.357788   78.794472   67.607117
H   78.014130   75.378120   90.467430
H   97.632698    9.387123   87.553246
H   14.120266   69.016586   33.252014
H   49.317665   19.251671   50.500412
H    7.105856   25.999641   65.527908
H   95.336960   82.553513   70.971741
H   32.931789    1.203845   72.328209
H   92.521667   97.022835   95.732620
H   86.097183   56.874588   98.769058
H   57.101067   16.268774   56.682098
H   23.827099   52.090790   91.495239
H   84.982040   22.056572    7.692852
H    2.175103   42.063705   84.185692
H   31.241802   41.961666   91.138046
H   19.568613    6.168935   85.254326
H   20.675121   23.254492    1.721123
H   70.441811   52.373306   49.343208
H   95.252739   86.044800   47.088562
H   74.117142   86.306900    7.303833
H   49.034554   63.539902   65.793846
H   85.203430   90.732506   65.844170
H   41.167320   30.165260   11.253421
H   10.191633   40.088352   89.136086
H    3.921257   51.680916   67.665665
H   65.757454   82.629845    2.357314
H   38.375942   71.486961   10.609516
H   55.683475   10.185910   96.096146
H   76.767639   86.782883   69.340904
H   88.228310   79.387741   71.841301
H   94.205963   21.286873   97.419456
H   64.124306   74.372414   22.792744
H   20.887335   51.751652   80.604721
H   53.758736   46.683697   22.304598
H   17.020069   48.825199   17.957735
H   56.775692   94.607376   64.736374
H   46.669289   34.479443   60.131920
H   28.021780   77.391014    9.853249
H   44.931004   39.604088   51.784943
H   73.389954   69.683380   41.558449
H    8.721809   77.875732   43.287041
H   53.563896   50.002548   56.981941
H   73.641731    2.969656   82.287674
H    5.596140    2.398639   64.628647
H    7.069983   11.532656   72.356102
H    8.614230   66.980217   65.379662
H   50.172024   45.884270   71.807106
H   23.208599   68.367294   89.568275
H   67.487640   30.499514   63.181843
H   56.952934   38.260849   59.403831
H   28.184666   49.814484   72.772507
H    4.657607   94.248917   65.552521
H   14.751849   91.311165   92.833885
H    9.456556   63.289207   15.881246
H   14.534309   81.468292   32.240734
H   14.810575   68.573311   26.811325
H   37.109467   57.476685   55.943569
H   25.706818   32.585331   81.407944
H   16.069721   39.832058   46.578041
H   79.847923   31.681053   62.286098
H   78.772202   41.723309   14.706699
H   18.107136   39.620960   30.674044
H   26.597925   42.502270   31.833670
H   53.437363   25.085499   47.615555
H   41.846626   91.866135   61.624275
H   84.641853   20.719856   46.555840
H   23.547148   25.217686   25.184298
H   27.015640   84.154823   90.857460
H   99.436790   28.960855   55.854256
H   64.297264    6.961869   80.939323
H   27.308069   68.249550   47.532269
H   13.022138   36.647415   83.408928
H   83.187317   46.192284   13.748981
H   29.541294   62.965950   10.866929
H   10.654787    2.808895   82.977104
H   10.985432   34.075050   95.681290
H   55.638676   57.710732   49.388924
H   14.475162   12.865166   68.642532
H   18.327230   93.692657   36.935692
H   91.191330   20.123526   17.112543
H    3.075678   16.612104   64.093925
H   76.357704   97.557907   79.683830
H   90.006470   86.684883   37.486732
H   89.733063   15.256832   69.788589
H   97.821709   20.611137   83.070190
H   19.679529   63.198505   85.452904
H   49.723778   78.408455   38.005604
H   37.678055   31.385784   69.570572
