100
TIME:    8.142, STEP:  8142
H   66.711906   75.360985   91.691788
H   75.614517   46.067867   91.484207
H   19.724443   59.671921   27.765099
H   82.843216   97.199089   93.871529
H   22.239740   25.374454   44.941589
H    1.755315   92.387260   85.075752
H   26.248348   11.123904   27.168171
H   79.941147   92.988792   60.623337
H   53.481972    3.472538   87.577316
H   52.372963   33.292057   26.512413
H   42.906021   93.853806   55.470222
H   45.084824   31.806805   13.372742
H   24.561531   69.160599   15.977766
H   51.937828   79.979958   76.850334
H   79.498726   42.749252   59.350868
H   74.150879   99.599754   57.183868
H   69.375801   20.501286   14.586736
H   75.177200   98.649437   17.284580
H   72.077179   19.919506   92.314728
H   73.154892   32.909649   70.677834
H   81.118904   45.655941   36.256084
H   42.961811   54.892609   25.911743
H   77.034767   28.405550   99.397171
H   62.549683   34.230194    2.377587
H   38.378975   40.459297   96.670448
H    9.217190   86.077316   24.683640
H   59.986107    4.022672   61.521313
H   45.543106   36.480732   35.903389
H   88.210533   87.798141   72.295494
H   13.193953   89.324692   30.653782
H   36.494251   52.164040   65.209953
H   79.848198   27.557186   45.518333
H   43.868687   72.775002   31.292616
H   22.120918   27.556892   28.741079
H   78.323738   43.206352   20.417479
H   80.408005   23.145651   93.829048
H   60.721905    6.356825   50.023037
H   27.468948    9.947924   97.000496
H    1.394066    4.018076   55.291924
H   96.308304   49.956985   78.630737
H   78.803726   35.553902   34.166470
H   14.050637   73.532013   95.624413
H   81.357269   12.329266   89.578773
H   59.448582   49.306229   76.816437
H   50.397064   10.652149   52.843422
H   73.025719   18.209740   16.239058
H    5.347297   67.627754    3.620303
H   56.684566   79.229950   72.358376
H    3.031409   58.128723   19.685772
H   96.683350   54.659885   14.243421
H   42.942524   83.585732   39.256012
H    0.829287    8.221319   39.565399
H   77.759590   69.218811   29.997526
H   88.142578   74.362381   91.100967
H   92.516365   72.131531   69.598450
H    3.736610    3.969130   15.453903
H   12.420150   54.612526   30.359505
H   19.785707    7.975600    3.834968
H   32.416592   82.797081   86.424957
H   21.731262   53.610218   32.032738
H   73.304123   99.931763   79.581276
H    9.942451   52.157486   26.954292
H   26.820545   51.687775   75.149078
H    2.135821   86.115967    6.082069
H   55.494415   10.555824   53.798111
H    1.173096   37.510307   27.602940
H   34.321045   29.853001   60.158062
H   17.942314   83.186699   55.437286
H   62.700119   64.754143   49.581558
H   95.384529   57.594372   84.574554
H   63.487232   41.420120   64.484200
H    2.794008   81.253319   52.850697
H   76.117355   15.575731   52.990795
H   50.969265   34.112858   19.383501
H   54.679230   40.303867   18.633413
H   18.137629   29.398251   48.075546
H    6.249912   21.089424   35.140930
H   14.504685   18.338039   64.093567
H   51.950439   29.603100    8.521002
H    0.234570   65.486137   19.480507
H   70.208290   13.515084   66.619141
H   52.264847   97.272629    5.844812
H   32.873772   43.281162    5.345330
H   10.306409    8.887531   19.771725
H   55.882675   39.589367   58.477409
H   63.906994    8.122275    7.188388
H   10.940629   11.362633   11.785316
H   86.974785   53.543861   11.158112
H   24.654659   40.838280   61.599739
H   46.476940   74.293228   15.274431
H   57.226887   13.076476    5.406155
H   80.724449    7.835857   88.665154
H    7.371437   71.819756   48.637939
H   34.158836    7.138553   75.801353
H   15.820839   20.418571    3.181708
H   66.417404   74.213440   46.904121
H   16.328840   34.931236   68.934776
H   22.561373   89.325920   15.430254
H   20.846733   71.961327   63.060650
H   44.941563   69.694443   13.394969
