200
TIME:    0.234, STEP:   234
H    9.286784   62.494907   15.236980
H   27.910807   32.790573   89.653603
H   18.263451   68.875534   45.052666
H   17.640255   76.903633   44.656593
H   15.273847   83.577179   53.744766
H   89.813782   52.977844   65.727043
H    3.272304   55.308388   49.535229
H    2.754170   88.627289   25.285305
H   87.184807   87.596176   47.865788
H   11.072414   74.982933   96.309120
H   11.984541   94.466011   92.772064
H   30.752991   41.862694   12.456386
H   11.026912   86.808754   61.537590
H    4.687290   53.181622   41.976681
H   19.911554   71.898399   42.993355
H   29.475277   26.213581   54.452438
H   83.925156    7.437494   15.723358
H   36.704659   82.878601   43.627186
H   64.825790   29.919136   42.395508
H   90.037163   79.787071   37.703312
H   58.013069   76.458740   26.115360
H   90.162605   48.585030   70.805908
H   95.184883   62.585083   49.280174
H    8.481145   88.004478   91.604897
H    2.985671   12.462652   45.624447
H   18.666059   62.070019    7.154715
H   98.779579   58.676365   48.840622
H   94.372589   69.881920    0.715484
H   10.815885   56.712105   38.373497
H   93.320557   20.603613   98.833450
H   13.369326   51.198582   16.187477
H   32.035160   63.365707   93.455406
H   27.268272    8.856432   73.105865
H   96.625130   63.571373   38.185425
H   48.276371   90.048935   34.264729
H   33.257248   50.058754   79.407677
H   86.092255   74.558502   85.909889
H   33.211697   44.600109   15.437214
H   53.292313   46.615467   44.298264
H   90.140289   39.713161   63.930756
H   80.502525    5.504083    1.325128
H   13.040667   43.232704   40.009048
H   76.809891   87.919762   50.105488
H   37.294632   62.942566   18.533747
H   28.572008   76.112091   44.147392
H   41.144226   13.994646   42.622623
H   79.861084   26.506134   96.047447
H   90.261894   65.550697   47.863358
H   86.848328   28.979855   61.162006
H   62.332111   17.774427    5.966271
H   78.350967   70.572060   28.106518
H   21.367479   35.594707   63.412621
H   52.014969   94.593941    7.849727
H   22.495892   82.057083   81.614311
H   77.452866   76.518372   90.967400
H    5.382570   72.497871   78.451752
H    5.447607   16.722755   49.718952
H   67.343124   58.439915    5.411733
H   28.307768   74.361557    6.981369
H   43.242062   96.022865   67.105148
H   50.438950   15.493467   42.411804
H   89.828888   16.410669   49.020199
H   71.282013   25.082174   85.087341
H   23.980663   65.143776    3.533542
H   71.251923   75.989624   17.684252
H   38.975060   16.328020   32.755447
H   86.399269   23.288548   85.711159
H   97.375023   91.436287   87.152763
H   16.309065    5.772166   62.055748
H   45.271503   41.525410   50.982914
H   58.467796   76.488358   73.120850
H   32.309109   23.979544   44.806828
H   77.303360   25.559368   99.696671
H    7.669892    9.096574   60.397968
H   79.071976    0.774454   67.894836
H   53.162102   19.288433   62.916679
H   95.452942   29.726831   72.230446
H   26.777473    5.860682   48.172707
H   11.484943   29.426104   35.071346
H   68.366501   90.700409   94.546173
H   43.113445   30.203455    1.222683
H   26.372639   68.698143   88.042717
H   11.023122   13.600486   90.455269
H   24.869726   61.663399   93.655975
H   39.121880   99.260406   57.952232
H   24.498173   85.984253   27.907722
H   35.586304    2.771606    1.757569
H   75.381386   18.767653   11.215882
H   65.504410   72.035744   77.144493
H   23.474182   85.778221   54.931515
H   41.494339   34.841000   80.781174
H   84.097221   88.482819   98.236923
H   46.974667   16.929768   95.900711
H   60.296917   94.649208   68.939919
H   24.972866   57.007362   67.689888
H   69.520546   27.575150   29.343790
H   79.224205   14.486700   98.070816
H    7.059637   28.345474   48.536762
H   37.153862   69.838135   52.859985
H   67.100105   97.829880   27.248941
H    9.598554   80.260498   68.657265
H   90.349190   76.565796   65.897697
H   23.055021   37.389221   30.418991
H   21.587591   67.928406   89.924103
H   25.346693   27.551582   24.893009
H   87.185570   27.066641   44.171677
H   65.374077   30.022280   56.287155
H   64.786537   34.044006   18.973612
H   72.644081   40.165390   98.842461
H    4.173992   28.144045    5.507899
H   47.115601   96.118919    0.791629
H   85.753036   63.194397   90.442818
H   57.198250   80.205032   94.065880
H   63.244499   19.526699   75.108704
H   64.050484   81.718719   26.983036
H   14.283357    5.972841   78.663712
H   32.821629    8.358224   84.110153
H   40.801556   26.701153   34.098442
H   18.634478   57.488346   83.836197
H   70.624290   46.555111   49.118935
H   40.491951   21.719563   87.716438
H   18.547985   27.622166   48.011673
H   32.091743   22.075619   23.851160
H    4.165711   67.534752   18.127949
H   77.095909    9.100652   93.011574
H   47.502529   62.188251   25.647234
H   95.535774   49.161911   71.286484
H   75.559914   87.522911   34.951900
H   92.393883   52.700855   85.027000
H   67.454376   24.177784   66.399391
H   48.366753   85.399933    3.182054
H   81.930305   85.991867    9.185491
H   92.457344   82.302818   97.330521
H    1.214791   12.849119   49.633232
H    4.129679    1.478608   56.692596
H   62.517883    1.634551   83.769997
H   68.882782   86.549232   55.039970
H   91.167168   64.408241   83.293175
H   46.156403   44.249725   71.551506
H   43.444695    9.377698   95.624207
H   50.320614   63.245110   14.716132
H   57.514511   40.828522   46.107021
H   55.198380   56.650555   99.586624
H   57.988014   26.744892   78.025002
H   40.019909   69.966064   48.872349
H   45.720291   61.872345   30.133530
H   44.589348   96.804070   47.324856
H   42.816277   73.642036   68.859398
H   65.024872   65.042770   98.004105
H    9.270716   88.609291   90.221466
H   76.431709   61.208050   51.389492
H   33.534798    7.275718   48.340355
H   75.897018   32.062939    3.675235
H    9.751282    1.005019   76.100792
H   13.374615   53.720585   60.644653
H   63.323982   43.514027   53.876366
H   59.248455   60.703663   80.684738
H   45.960762   36.756165    9.583565
H   12.656410    1.756940    2.827428
H   63.746944   57.188629   78.010818
H   53.897011   84.653145   83.575417
H   43.885815   23.087395   35.595955
H   64.961082   34.831535   37.234547
H   11.054443   20.003399   71.455505
H   59.011635   21.884771    9.765591
H   11.810321   64.630135   62.334621
H   75.003151   97.664009   52.158092
H   23.626972   30.659576   47.764606
H   93.991432   28.189722   36.871101
H   26.199142   10.504992   90.470917
H   79.479614    5.562465   35.976578
H   46.370216   65.669952   57.439690
H   37.557014   77.712051   90.592850
H   71.298119   74.688110   74.104996
H   71.716736   95.081680   99.513542
H    0.722129   47.628441   23.280989
H   35.479382   52.733719   86.656975
H    1.676825    9.195137   64.803482
H   75.755013   21.519045   69.205017
H   86.585945   54.390739   86.300362
H   81.527359   84.974403   41.858803
H   19.106646   30.098721   69.397125
H   65.911362   90.171982    5.951277
H   51.350273   25.209227   76.969551
H   85.445374   88.594620   78.421555
H   99.134819   36.173141   83.924171
H   31.143114    4.627344   99.132217
H   90.709305   66.970406   25.316605
H    6.792133   61.146648   66.474838
H   49.504463   58.305950   65.627213
H   47.533642   31.222855   79.344307
H   47.702103   84.766144   24.700811
H    3.967196   17.381283   57.668770
H   35.208393   63.291603   33.192364
H   85.100510   54.523335   21.835911
H   75.313492   10.368723   29.648575
H    9.421397   85.395805    3.264259
H   29.083864   97.525429   47.135925
H   11.993321   11.595106   78.285408
H    8.070318   35.196011   97.832153
