200
TIME:    0.887, STEP:   887
H   29.351976   60.327740   26.402876
H   33.730652   42.323620   16.163267
H    4.577108   97.457237   77.216423
H   39.651520   84.536049   27.580807
H    8.340778    0.127368   44.356197
H   68.570557   35.254398   46.399174
H   12.733100   54.845062   62.174549
H   17.387535   16.823917    2.106882
H   13.703228   77.806557   31.935854
H   88.085571   65.834961   70.552208
H   34.744896    8.415185   13.407478
H   33.453232   59.292202   43.570721
H   27.053989    8.481291   34.774315
H   73.823456   55.936665   73.442955
H   88.384964   76.925232   41.386662
H   10.441749   99.308395   40.365849
H   14.647012   38.019882   84.022736
H   21.199068   14.270994   32.001701
H   86.552269    6.278560   52.008266
H   92.114655   70.819481   12.389708
H   65.849747    9.055658   96.198799
H   75.625145   73.544823   45.641853
H   75.630554   57.837242   33.611801
H   22.312407   93.957962   89.557297
H   31.368324   38.725323   22.323658
H   18.125513   91.050117   85.587662
H   11.425407   71.779015   75.095734
H    9.359237   96.819565    2.433701
H   38.318985   36.863838   34.549816
H   63.812183   38.097076   76.245087
H   12.516782   78.479988   16.985842
H   20.160576   78.670395    9.532788
H   11.490295   22.907219   81.082039
H   75.013237   64.283798   49.599174
H   16.939026   63.066540   29.297001
H   11.922702   35.170685   86.891197
H    4.834332   60.464439   90.812172
H    0.911908   61.491562   86.077644
H   29.124657   23.232943   58.813305
H   83.877922   37.027866   38.422943
H   80.696823   74.999519   22.999622
H   45.543198   29.539467   20.645796
H   65.052383   72.918976   74.352859
H   35.839890   94.657860   41.887566
H   50.883678   96.035088   67.712227
H   31.954929   97.000519   49.724457
H   92.166611   94.513596   10.364062
H   74.364349   65.540733   24.388199
H   12.102157    4.199710   61.632805
H   38.964066   20.721277   78.340767
H   62.817108   62.306931    2.227809
H   96.405952   46.834087   77.451988
H   69.628258   75.919945   16.382025
H   12.777059   95.837280   91.284363
H   49.812759   61.995857   69.848724
H   97.012016   56.409832   99.834473
H    3.584064   19.193825   42.714268
H   74.477341   73.620049   93.625038
H   14.528816   86.975967   22.774647
H   28.139145   92.356117   55.033775
H   48.324093    2.753277   23.332689
H    1.564962   17.957579   54.026428
H   89.271996   38.608925   63.056854
H   39.802849   66.075409   18.113255
H   81.748985   85.724442   44.387074
H   13.359291   41.697105   44.493027
H   62.007423    9.514284   99.202400
H   93.718239   92.920921    0.081046
H   39.535965   14.596524   53.790619
H   41.512589   52.906776   50.948040
H   58.181332   87.782539   90.587723
H   13.956705    6.815639   40.235847
H   98.028458   36.848568   77.830696
H   28.944012   94.743286   79.408791
H   87.023239   11.345002   37.190804
H   69.667450   96.234985   58.649601
H   92.692917   54.036472   62.993553
H    2.591420   17.751457   25.843407
H   16.453133   58.514091   20.596516
H   58.525673   87.058571   63.578094
H   70.828278   19.167091   91.528000
H   55.086121   56.954086   67.855675
H    8.475454   20.763348   71.349319
H    3.575500   83.016228   14.938524
H   15.868420    6.165644   39.446613
H   42.894695   63.136826   14.314427
H   64.852959    4.132314    3.254645
H   69.951012   94.464127   35.845425
H   85.489487   73.631950   79.500793
H   20.203503   15.048396   47.747478
H   14.121541   40.478127   77.876671
H   79.548660   94.212112   12.485264
H   77.996178    9.565134   77.302925
H   31.015202   71.188995   86.870117
H   41.518600   48.174286   94.886597
H   42.478279   42.174885   98.641174
H   88.082191   91.899849   26.193893
H   96.057983   39.688274   56.158649
H   22.357338   63.296776   55.174122
H   78.454071    8.440267   27.408365
H   38.733120   98.315247   99.406136
H   14.630314   86.445091   62.295715
H   36.591103   13.524567   39.543732
H   52.964607   69.134048   15.856164
H   24.481071   18.970097   46.063995
H   13.037857   95.096123   13.598965
H   89.358231   36.933987   51.808899
H   60.938454   59.115894   93.723610
H   89.239105   31.922680   30.418339
H   25.150679   19.039450    8.703848
H   55.707050   90.444427    1.251063
H   11.972445   79.615173   97.880936
H   45.856739   87.782646   79.862213
H   61.032494    5.448884   58.270412
H   42.259239    8.910221    4.086710
H   87.634354   86.871117    8.122485
H    5.973427   17.553223   91.722641
H   37.488529   58.842491   21.045616
H   43.433025   82.004738   51.563797
H   87.857010   59.588009   73.479370
H   47.307320   26.058880   66.318771
H   90.373253   12.153072   67.219337
H   47.834846   94.534805   43.223122
H   94.545158   44.036800   89.531822
H   57.556526   92.933258   71.414627
H   71.425438   80.054665   13.039293
H   79.304436   52.210892   46.067627
H   61.276535   92.644402   40.466969
H    0.429854   29.063782   70.145782
H   99.104988   21.082720   77.524185
H   74.726486   62.084198   28.136860
H   56.865891   92.468460   24.584835
H   90.325050   14.072445    2.188691
H   69.195488   29.591301   57.669804
H   36.388287   89.671310   26.686043
H   45.125740    0.796486   74.149765
H   69.963875   88.213219   87.547485
H   96.737038   44.019478   72.975464
H   63.224716   53.381721   71.397064
H   43.798416   78.060310   77.479782
H   82.648781   44.042011   35.809860
H   27.453344   60.669315   61.329506
H   34.206745   68.668648   77.561226
H   28.066154    3.107326   88.845894
H   70.713982   48.309334   70.225174
H   69.646912   73.122162   98.858894
H   60.033531   93.944405   42.649254
H   24.985718   49.334885   65.112938
H   82.481781   37.778896   91.512566
H   30.086538   95.738525   65.784782
H   53.416042   72.297974   46.459808
H   61.022953   89.206619   27.876812
H    6.232468    7.646183   80.752708
H   27.012873   15.993833   59.963486
H   39.268532   70.966766   72.457672
H   82.708923   45.133175   73.967491
H   66.083755   80.287468   88.416794
H   55.244709   26.279030   24.882025
H   82.769608   99.296295   78.610153
H   56.425903   30.544853    3.070010
H   60.311329   58.124023   66.213165
H   13.225857   19.703375   29.938900
H   93.069496    6.360822   36.963028
H   35.023781   39.186569   43.518307
H   52.759232   44.042194   16.181759
H   23.060911   43.852798   58.765022
H   63.758789   87.102180   59.080574
H   24.197411   60.369701   74.767014
H    2.864961   26.066147   35.329174
H   55.998943    5.577177   83.117493
H   67.004700   13.328149   35.921776
H   23.811291   41.415279   59.444942
H   50.173916   49.652184   72.219254
H   63.258648   59.063396   89.250313
H   41.366425   90.169434   68.809509
H   20.879417   51.160320   23.919567
H   28.771126   73.133614   13.971996
H    7.464284    9.817886   73.153305
H   59.054626    6.338511   61.568413
H   55.523891   61.395424   95.512070
H   69.605446    8.375358   26.676611
H   32.277767   30.895840   93.235970
H   35.844063   89.483818   18.885475
H   65.570793   26.417519    0.992706
H   93.889854   60.271980   75.731277
H   12.805009   41.683228   87.192360
H   53.880890   93.442429   13.601139
H   59.337685   94.630440   48.166157
H   87.880928   64.058571   73.937866
H   61.379047   54.753788   73.877396
H   78.727226    9.618435   74.681160
H   42.348949    2.512117   16.383371
H   18.471844   32.916462   72.628647
H   23.800522   89.352486   46.352303
H   62.691349   25.356531   19.699881
H   76.907730   11.971057   20.702158
H   13.761960    3.201763   25.304609
H   10.106008   84.547333   28.719982
H    3.285430   13.422253   49.080956
H    1.259555   13.072480   88.759941
