100
TIME:    5.845, STEP:  5845
H   22.048819   86.005943   93.794754
H   39.049782   21.595282   46.651928
H   80.232040   94.417160   54.734264
H   82.457672   91.835541   19.778149
H   42.817917   41.259949    7.223877
H   37.381321   94.875771   57.596973
H   46.633198   56.021122   47.539692
H   60.480820   94.269180   71.526070
H    9.946678   24.320587   32.164604
H   15.113554    0.308931   36.573124
H   56.567368    1.429004   76.729012
H   32.753769   16.670002   76.875740
H   71.085342    8.131390   44.233086
H   65.671379   87.059944    2.046190
H   51.595238   47.928329   69.809998
H   66.509048    0.503831   47.855194
H   54.087013   68.570915    5.481756
H   26.059401   10.420780   96.908241
H   36.305271   23.557802   71.298172
H   35.042282   81.687294   14.287348
H   17.426125   74.329590   98.601234
H   22.746185   51.843307   21.522507
H    7.703693   47.085213   65.118073
H   75.973763    6.751437   72.973541
H   20.533482   22.621841   79.706520
H   19.901514   53.867668   40.780037
H   58.058846   99.506241   15.939526
H   39.357647   29.264534   59.979858
H   38.265083   79.396240   80.876221
H   25.116108   46.176109   48.049057
H   46.093567   46.187710   46.941139
H   34.813999   91.021652   58.163124
H   82.071404   40.833916   24.360716
H   25.067116   38.063286   25.510118
H   35.481262   17.082331   80.647659
H   80.733627   43.234489    1.049752
H   40.410545   90.478149   69.028481
H   22.408642   51.989094   34.906796
H   98.351593   54.063774   77.888512
H   12.660124   64.994911   97.906517
H   35.786804   56.737053   80.051369
H    7.629231   64.524307   78.356285
H   61.587246   98.550674   23.664883
H    6.121578   10.751059   52.228539
H   49.644810    1.279666   56.282940
H    2.676616   74.401260    6.907145
H   87.398727   42.709427   81.571877
H   56.551571   55.571579   30.233374
H   35.884727   48.366310   11.313882
H   48.465061   19.695990   74.856491
H   43.100246    5.346170   15.042815
H   89.189049   21.366791   90.348091
H   30.114941   55.900024   63.402073
H   41.334000   11.834395   89.740746
H   75.407219   70.833557   50.063412
H    0.875688    6.385350   93.649200
H   66.798103   20.892006   11.895662
H   90.825104   24.899698   63.001694
H   51.258728   85.734352   62.760597
H   73.308258   77.054688   97.364891
H   28.408066    6.753088   58.672665
H   91.467445   73.537643   30.886368
H   70.878517    8.430458   32.661255
H   44.405586   73.603317   68.450668
H   64.323044   94.013504   39.888767
H   42.278282   51.700768   91.785347
H   18.613255   50.437931   49.259232
H   76.611565   51.819370   45.627399
H   48.217136   29.801903   93.643829
H   48.803047   42.128937   89.425232
H   36.428322   97.706818   92.033058
H   92.020340   57.540817   84.565659
H   25.886711   29.188667   11.880722
H    1.540585   79.488426   55.863274
H   43.981678   36.973743   44.489029
H   63.841187   82.182915    2.635752
H   97.642723   19.939959   94.419823
H    6.589060   68.531380   37.237534
H   41.801327   36.350117   82.895454
H   12.880856   90.614449   17.369061
H   25.249636   89.750870   29.330542
H   79.895081   82.376480   98.006310
H   87.583931    4.868071   86.591766
H   52.275688   12.328207   29.566662
H   67.726143   83.277031   81.145248
H   16.766811   23.749928   47.677811
H   57.529060   78.373665    2.255600
H   50.032677   37.350727   34.974205
H   76.983261   68.732002   80.386238
H   49.562595   68.798386   33.162422
H   63.224144   89.044815   56.897503
H   10.769709   35.078766   44.896057
H   60.129227    2.897041   71.007401
H   12.164619   67.782539   20.918291
H   55.535423   26.170017   50.397526
H   76.694611   64.918915   65.547058
H   98.654106    3.113385    1.037742
H   26.995127   75.668121   61.540939
H   30.270599   62.045795   55.457954
H    2.267523   28.643051   34.673336
