100
TIME:    1.920, STEP:  1920
H   87.480865   45.947495   97.388199
H   47.861977    8.843740   99.113335
H   12.757910   12.036685    0.796651
H   81.798874   53.546471   34.921238
H   77.973785   26.653980   13.645903
H   98.243416   99.128014   68.890526
H   52.342220   90.984810   40.599358
H   68.978081   54.705532   31.905983
H    6.430733    1.693132   79.230400
H   22.371256   43.951714   82.875206
H   21.661301   43.497761   54.804745
H   82.559540   19.930101   56.261177
H   21.131535   45.544792   34.296738
H   60.014366   99.157875    3.351998
H    3.853804   98.525421   58.481224
H   24.326111   43.799194   73.664810
H   69.702332    8.969673   48.165359
H   42.174057    1.330889   32.983688
H   75.167229   58.901642   64.513733
H   40.789581   65.037949   47.055153
H   50.341110   65.076233    5.132622
H   46.450016   46.634117   55.771271
H   60.109261   79.006981   77.416428
H   40.652733   59.709110   64.479553
H   60.913567   33.900551   50.728134
H   37.855274   70.397018    9.211024
H   96.514778   62.667187   38.066608
H   70.537125   46.058819   30.236845
H   52.919449   23.289316   66.412865
H   74.614845   43.320114   36.022640
H   91.629097   94.221191   57.480610
H   86.987244   99.466942   21.520027
H    5.599281   28.005543   70.765717
H   59.225914   97.766312   90.865128
H   33.047218   13.783002   41.642502
H   39.491528   35.309887   14.039414
H   63.951027   34.222511   59.753788
H   84.633904   23.812649   57.929379
H   64.406357   39.521660   58.104965
H   82.350594   32.439022   89.095840
H    4.031372   22.063414   87.578903
H   59.062531   98.027199   93.005020
H   27.778921   75.013611   40.156898
H   56.754097   44.950157   68.460617
H   90.109764   56.135571   20.409803
H   53.316891   99.537849   90.966774
H   56.353504   29.313944   44.029488
H   56.341953   15.151567   87.376671
H   21.154356   73.434349   67.886520
H   66.157555   59.973026   49.376560
H   43.398136   84.279686   73.661026
H   98.442039   85.577576   48.018269
H   48.707916   33.141541   91.359001
H   32.230068   75.881508   16.540796
H   87.908783   26.822092   16.698561
H   95.968582   10.514120   27.265472
H   17.972040   34.146400   38.595497
H   83.089935   95.566971   64.100906
H   41.702728   19.893267   64.085144
H   32.318485   75.366028    9.000676
H   80.815567   89.283272   64.696220
H   30.766735   10.073050    8.479512
H    4.464569   76.223549    1.838588
H   74.883118   52.238815   75.014290
H    8.529395    7.496362   74.367676
H   83.396706   46.824104   59.710735
H   33.523849   14.742797   59.760082
H   47.738304   27.344479   57.989704
H   52.596024   11.827362   39.813835
H   69.280579   44.713943   97.690155
H   61.063850   64.764015   39.120060
H   15.654620   87.803894   97.194725
H   81.803802   23.335629   12.516346
H   87.935722   27.877790   89.097252
H   54.741356   31.375631   46.947247
H   71.050865   30.626226   66.736717
H   41.278580   60.135139   25.004934
H   22.185421   25.176172   20.473827
H   53.584747   47.877781   39.099571
H    5.364918    4.386168   55.511452
H   48.454983   49.144939   94.743004
H   85.382858   56.766617   26.228571
H   39.281216   39.303467   12.770302
H   82.249031   76.458473   88.059113
H   58.841522   28.786964   61.629974
H    7.099781   79.580421   75.113838
H   95.387169   63.753281   15.096428
H   86.863373   51.574677   75.782722
H   95.527046   87.269981   12.491472
H   96.584244   30.281326   92.853645
H    2.596859   77.105240   74.008621
H   20.347841   39.907803   70.104790
H    8.475220   85.161728   67.451553
H   32.803120   29.694433   56.273376
H   23.396389   77.748047   60.206047
H   52.505722   19.912539   68.278412
H   10.202035   77.865425   26.768494
H   13.914725   32.585327   25.315697
H   17.248611   45.126659   84.221390
H   58.479843   29.385792   12.762188
