200
TIME:    0.304, STEP:   304
H   11.437768   62.262592   16.433937
H   28.534719   33.812492   92.495323
H   16.796261   71.939423   48.500542
H   19.999855   77.721809   42.826111
H   14.530639   85.351318   52.738335
H   87.536560   51.077934   63.654945
H    4.286468   55.258720   50.890133
H    4.322831   91.650055   22.800602
H   90.027596   86.546753   46.158138
H    8.608273   74.002403   93.548042
H   14.424450   95.961372   94.984131
H   31.042450   43.731094   15.791776
H   12.744975   89.131905   58.668633
H    1.378538   53.476955   45.349789
H   16.531904   72.437263   42.821121
H   27.434910   23.329403   52.942390
H   87.218155   10.715935   12.324749
H   35.042404   86.243698   42.380962
H   67.154816   27.384899   43.425972
H   90.259865   78.825768   34.989765
H   58.853142   79.953079   22.908344
H   88.604225   51.260658   68.108383
H   93.088707   62.076126   47.600563
H    9.963822   88.642677   91.385399
H    6.028230   15.278004   43.126659
H   18.608114   65.176468    4.842779
H    0.135033   60.080936   51.655106
H   95.979034   72.769569    0.899671
H   13.764150   54.584419   37.963608
H   90.157333   22.478823   96.412033
H   13.277935   54.123081   16.273060
H   30.762234   65.006332   95.178810
H   25.576912   10.362675   73.960892
H   94.308388   63.647743   39.408951
H   44.917149   87.156479   33.732273
H   30.970680   48.462723   80.210365
H   88.101379   73.047653   86.435402
H   29.749222   46.410831   12.289879
H   50.701599   44.108868   45.854240
H   89.468979   39.425304   61.196381
H   80.523354    2.234157    3.648579
H   16.524858   41.764847   37.933434
H   75.549515   86.311714   52.704746
H   37.138687   66.342293   21.037275
H   30.963652   78.247787   46.673485
H   40.159157   12.172909   43.383923
H   81.180206   23.076683   97.582329
H   88.557716   65.549629   45.346878
H   89.555466   26.323452   61.212475
H   59.827114   18.090322    3.004755
H   76.685776   69.686058   25.332355
H   18.691584   36.799541   64.917702
H   53.902596   92.590691    8.765508
H   21.454079   83.534286   82.650917
H   74.489914   74.961594   88.703529
H    4.485220   70.773399   80.743927
H    5.247836   16.987648   48.968067
H   68.107895   60.067188    4.148319
H   26.830698   75.713791    8.674397
H   41.623066   95.629799   65.811127
H   50.212242   14.127748   40.366631
H   91.086594   16.576494   49.556660
H   73.210495   26.532274   82.725739
H   25.676697   65.243645    5.096429
H   72.377182   77.033173   20.546667
H   36.229202   19.047575   34.013687
H   83.784523   21.812012   87.157387
H   96.983025   91.595436   88.538643
H   18.798975    6.718116   61.169746
H   44.868557   42.745464   50.979176
H   58.437088   77.699066   74.993256
H   30.341793   22.139582   44.316830
H   79.525040   26.769543   97.352692
H    9.950385    7.557944   62.435665
H   79.924332    1.907591   64.603439
H   54.931435   16.817081   62.459259
H   95.157074   32.332764   71.240303
H   24.184757    7.135344   45.779060
H   12.017132   32.544842   33.520977
H   67.311737   90.310013   91.226471
H   46.084408   29.020384    0.183641
H   29.450546   67.439369   85.878716
H   10.750018   14.368327   88.407158
H   22.587030   63.952370   95.937469
H   36.629166    0.000610   55.968475
H   26.470314   83.535065   26.450546
H   38.723625    2.917471    1.918045
H   74.799263   16.162386   13.856130
H   67.645447   72.209846   77.399239
H   23.123573   88.915810   54.161404
H   38.559959   35.445286   80.469818
H   83.609627   89.096985   99.764328
H   50.299976   16.140297   93.907074
H   57.157993   92.134331   70.861992
H   26.746605   56.060478   70.605309
H   66.621681   29.140205   26.052526
H   80.173759   12.065550    1.085556
H    5.135294   29.433216   49.199528
H   35.567711   69.136917   53.108055
H   68.317223   98.967422   27.266031
H   12.721656   82.195923   71.953468
H   92.952187   77.624832   65.511574
H   24.506056   34.831085   31.397251
H   24.951220   68.057648   92.703873
H   25.253901   26.631668   27.162487
H   89.956795   23.639460   40.894432
H   68.690041   30.891459   55.961380
H   64.374245   36.731651   16.266874
H   74.423027   39.281792    2.227314
H    6.422641   27.168055    5.850497
H   48.036583   95.510628    0.840879
H   88.563782   64.954773   91.240166
H   55.982468   81.017334   92.543282
H   63.007378   18.017586   73.303589
H   61.714516   84.633606   24.528641
H   11.426616    3.924998   81.821594
H   29.943592    9.343894   84.926193
H   40.446407   30.146626   32.699211
H   21.292883   60.116444   80.376572
H   72.471596   47.952206   51.730209
H   41.222542   22.184727   85.422661
H   15.527622   25.963917   50.070732
H   33.779366   19.123348   25.927710
H    3.134365   65.015602   15.062571
H   75.001335    7.367489   90.696434
H   50.067074   64.103638   24.295668
H   93.795815   49.488754   68.583084
H   74.028770   88.071922   35.543102
H   93.255318   50.167019   83.431770
H   70.847244   23.846001   67.591942
H   51.192451   82.900543    5.857143
H   79.243462   86.686142   10.836263
H   92.228767   85.708504   97.851227
H   97.782379   14.643887   50.494934
H    7.587735    0.212917   53.475967
H   60.653488    1.544712   82.738731
H   68.998672   86.727608   58.524696
H   91.764244   62.222660   82.187141
H   47.986084   45.228653   71.534950
H   43.482613    6.020411   93.679169
H   53.786114   61.186584   16.977295
H   54.292007   42.955406   47.738834
H   52.948128   57.938969   97.225555
H   54.780464   24.210922   79.184975
H   43.310238   67.644516   51.161320
H   48.285103   63.078514   26.780983
H   46.244926   96.497520   46.823643
H   40.904884   71.036369   68.457787
H   66.896210   62.120232   97.308228
H   11.502081   89.373528   87.601913
H   73.964363   62.396862   50.861042
H   36.481461    5.338858   46.146713
H   79.148895   29.445522    1.217789
H   11.601725    2.611770   74.370979
H   16.150379   55.569225   61.911171
H   65.402000   43.687595   56.029953
H   59.981182   62.802776   81.513596
H   46.955978   35.633041   11.223522
H    9.452665    1.493182    0.231557
H   62.962147   54.332489   80.697128
H   54.584610   81.809288   81.714226
H   40.599224   22.724636   34.989532
H   67.974236   31.779652   37.205441
H   13.623861   22.059788   68.460510
H   58.341393   24.259993   10.453390
H   13.016356   62.402920   61.951969
H   73.797783   96.531807   52.900166
H   23.688122   33.844429   50.659199
H   94.942589   27.962080   36.705811
H   29.393608    9.976743   89.682648
H   78.142334    6.394928   35.970703
H   43.952003   63.070061   57.654648
H   38.909515   74.704239   88.623245
H   70.437218   73.010101   75.726395
H   68.463257   94.555099   96.222145
H    2.883343   48.006554   23.348146
H   34.760273   54.920418   89.585213
H    2.297217    9.261894   65.698563
H   73.964851   19.891771   68.386307
H   83.256096   55.141624   87.287834
H   80.249359   87.482872   40.231262
H   20.518560   30.184170   71.952591
H   62.688747   90.099350    7.336723
H   52.874474   25.338869   79.544777
H   86.350601   85.558502   78.133163
H    0.600258   36.763809   84.274513
H   33.580505    3.428292    0.683183
H   87.346344   69.935493   27.765926
H    4.764984   61.458805   67.274857
H   50.777390   57.925167   66.511612
H   50.877644   28.906914   78.844429
H   47.128258   86.668457   23.809202
H    5.522071   19.046608   59.272278
H   33.985401   66.085327   34.603077
H   82.698318   51.396694   21.606934
H   75.484390   10.540489   28.689541
H    9.886695   87.304527    5.626935
H   27.049505   96.134209   45.161781
H   11.059855   11.790972   75.154762
H    7.340225   32.824528   96.859634
