100
TIME:    0.163, STEP:   163
H    6.299702    7.073418   98.996780
H   96.736046   13.582348   88.282532
H   82.565002   85.630898   21.425980
H   81.503967   25.935038   31.228327
H   93.711075   85.822693   61.285622
H   25.488735    1.036246   94.887627
H   44.427235   72.345039    3.199333
H    7.074820    2.704275   93.227562
H   49.621147   70.621582   89.826683
H   70.386070   18.727322   14.071810
H   85.093170   72.801208   24.048817
H   49.620457   31.860863   81.326759
H   32.894257   51.845703    8.928401
H   47.011204    4.574700   69.645348
H   82.485435   55.461868   42.937519
H   94.969650   97.479683   19.509174
H   10.961281   92.776558   88.195686
H    4.627948   86.773849   93.895309
H   47.802467   85.191269   71.949020
H   88.237129    2.114492   27.308207
H   54.603897   39.990524   52.817436
H   77.977272   44.315079    5.375981
H   83.567741   93.296547   27.687229
H    3.897071   38.636692   94.968567
H   23.753149   73.246513   37.761978
H   45.908726   22.755459   73.893394
H   48.023464   35.701244    3.200836
H   18.787415   64.047470   72.163742
H   14.715524   63.880581   49.466858
H    7.244119   86.805435   96.347069
H   22.513704   36.659355   96.513573
H   76.049316   48.006866   84.174370
H   81.839661   56.556236   12.481282
H   84.989159   58.784698   64.884377
H   76.720207   46.598679   34.653900
H   86.727135   97.290092   20.083471
H   95.433067   98.565773   21.308910
H   57.251518   55.970875   33.943729
H   43.392910   77.028419   26.503807
H   47.840321   96.923302   50.859131
H   24.102596   61.771572   46.178967
H   16.971664   19.172274   10.458207
H   12.645593   64.477402   13.247128
H   68.950867   15.503465   96.669083
H   42.516266   25.460716   70.055847
H   75.869667   66.268364   83.957497
H   37.801197   34.533794   29.016058
H   56.248119   97.060486   78.663467
H   69.792290   18.949848   37.971977
H   29.308416   33.230358   72.263687
H   43.529751   53.907776   55.139698
H   13.054654   48.614105   63.362701
H   12.260485   22.953857   93.403023
H   72.910843    4.542675   39.008564
H   27.783035   72.794907    1.789301
H   93.770187   12.360905   87.077896
H    6.586082   84.843529   71.490074
H   13.922270   61.493263    9.356369
H    3.133318   45.656113   98.969482
H   48.263939   40.316864   58.969315
H   69.982834   70.989365    1.687735
H   93.125946   26.428177   87.979294
H   85.289299   96.037743   22.375702
H   54.232994   42.681160   22.715117
H   38.791580   47.826046   10.740701
H   91.332130   34.169941   55.823696
H   74.490715   53.996471   74.931808
H   69.106224   26.859688   73.994942
H   65.028008   38.074181   50.010242
H   33.688721   56.343224    1.388001
H   16.856623   84.313820   60.192478
H   60.525982   46.115898   68.556740
H   96.363403   10.244793   57.570034
H   26.603203   39.064838   93.521034
H   70.029343   28.875628   13.754313
H   29.511526   18.018946   84.961655
H   81.754608   12.416370   93.916565
H   39.638367   40.062290   23.441765
H   69.367134   53.023045   19.505962
H   91.531631    0.076389    6.878602
H   14.071741   30.967588   89.731003
H   53.553913   45.292068   73.150696
H   28.109604    9.978009   45.424744
H   61.383896   26.109715   48.541939
H   44.393669   38.688828   31.951153
H   47.545048   15.038199   53.103458
H   78.041115   91.501488   31.315655
H   58.579147   92.243980   94.044029
H   59.065865   85.096870   26.867352
H   51.923836    2.580358   30.038748
H   30.693209   82.232651   36.904003
H   90.346977    7.765672   36.630447
H   95.742821   32.515511   31.525206
H   62.983322   23.119356   37.808971
H   53.773670   35.129230   19.832672
H    7.384758   89.294853   59.029778
H   49.663994   77.034676   27.814659
H    7.463782   17.625519   53.427254
H    0.947248   37.552921   31.398083
H   49.364361   74.516396   81.986679
