100
TIME:    8.790, STEP:  8790
H   22.890156   15.936604   91.098526
H   57.717789   81.181595   32.342228
H   30.862932    6.292094   20.158989
H   82.951981   70.502312   58.354141
H   16.433191   77.314514   27.371807
H   91.708740   91.685234   49.249474
H   92.286461   54.881897   77.842613
H   29.009628   49.047993    1.124440
H   37.552895   41.170074   46.788486
H   34.673988   42.596378   51.884773
H   82.630646   19.926682   93.052269
H   20.350754   64.287880   67.247261
H   83.240463   29.940407   51.580833
H   19.853193   77.982643   26.162868
H   87.369331   84.866707   28.189796
H   48.096802   42.923485    3.393727
H   17.267647   63.359501   73.576729
H   89.031387   67.117577   94.822342
H   82.172516   47.105724   26.453220
H   55.695576   19.148611   14.796625
H   42.665657   81.145172   18.668943
H    5.086205   55.752838   70.728592
H   68.383034   23.137880   80.857742
H    2.339772   41.982147   54.253010
H   15.203967   89.069046    1.455389
H    6.161045   66.974289   63.704929
H    4.107031   77.088089   74.376266
H   90.867188   66.727188   57.325081
H    2.300644   46.589352   41.663414
H   38.040001   73.286850   82.168610
H   61.999561   10.272434   13.942253
H   20.763111    9.655075   85.529762
H   89.512466   25.363850   89.669571
H   49.500839   68.171661    1.443502
H   62.196907   94.143684   59.844662
H   36.736805   73.902740   91.792183
H   22.874706   82.625740    1.083070
H    0.686330   98.089363   42.726578
H   74.044487   89.899132   92.496414
H   35.273888   89.292885   29.613131
H   34.516739   57.786385   49.433071
H   59.440582   76.073151   28.706375
H   86.933929   16.216434   36.383709
H   18.073521   60.187637   40.173679
H   94.188629   85.090538    8.295072
H   64.660728   30.566887   18.871656
H   10.413423    2.867721    9.843166
H   56.724117   85.904144   12.452627
H   21.971451    4.463216   93.836731
H   10.286009   64.523125   68.936943
H   42.898029   21.025848   46.088409
H   32.323589   48.092533   97.027046
H   91.196968   72.976135   92.362991
H   73.133057   63.792336   19.694492
H   40.922371   28.918165   75.105896
H    4.543694    3.287497   93.394440
H   53.498688   35.914894   91.989510
H   71.534363   46.780403   87.144188
H   83.526085   10.177201   36.677246
H   78.969032    3.415883   13.602074
H   14.180290   69.794067   29.058575
H   86.943626   46.125992   97.634361
H   70.814789    7.468869   30.713776
H   46.633816   89.645874   88.490372
H   81.213943   58.802204   14.143080
H   61.365303    5.296607   65.917763
H   82.330093   52.253811   91.442734
H   73.180283   20.247028   86.415436
H   94.993530   18.192986    8.938402
H    8.545333   90.143692   83.200165
H   42.905994   97.327675   56.712471
H   49.431648   59.737694    0.350001
H   33.867233   83.521172   36.374523
H   36.706264   93.100990   80.881935
H   85.894684   41.258030   67.765366
H   33.458611   70.930534    4.474469
H   65.102371   65.004639   46.635376
H   44.945316   75.969261   99.887024
H   83.025551   27.699718   15.752615
H   68.455528   30.186937   63.654869
H   82.894203   20.218943    5.349383
H    0.891288    1.476416   51.632027
H   73.862022   54.118076   67.059105
H   54.886284   64.338600   60.585667
H   24.331039   99.054184   95.661835
H   48.991405   31.924431   52.187531
H   54.219074   64.247551   42.684364
H   97.396416    1.689540    4.439233
H   38.103275    4.759562   56.299934
H   89.184677   47.632965   38.438103
H   83.745689   48.064190   19.090843
H   28.669886   56.571289    1.014512
H   48.909397   91.258965   98.748779
H   96.785141   46.452015   19.494402
H    4.615795   62.376003   18.071169
H   19.939590   48.624084   13.434177
H   64.893456   72.118858   31.668030
H   21.310579   21.389942    2.420519
H   89.977837   74.759544    8.782146
H   85.192032   53.066593   50.972095
