100
TIME:    6.548, STEP:  6548
H   74.507889   21.537539   93.151138
H   19.635750   59.691967   90.977699
H   92.321289   44.992958   46.479893
H   82.575668   62.872833   81.245117
H   36.521210   97.608505   88.162689
H   26.477398   94.114159   27.216297
H    9.790170    3.489024    2.515225
H    5.226410   55.086300    6.977586
H   92.665535   56.729904   87.913582
H   95.910255   10.403830   64.098427
H   91.176025   29.715353    9.013355
H    5.920357   51.907963   26.834896
H   26.225327   65.620049   74.379326
H   30.862583   84.893105   55.546734
H   60.138008   85.133202   36.009121
H   38.243591   39.017067   89.499512
H   97.555794   15.070830   69.478615
H   41.093189   76.213440   72.536659
H   47.252102   53.051491    8.337161
H   16.103889   66.755409   62.150902
H   75.709122    4.342568   79.518028
H   90.143478   52.776550   61.655594
H   98.316963   41.367760   45.005081
H   10.653988   15.161348   20.761713
H   95.390938   66.871811   84.898354
H   16.696844   33.084244   74.672066
H   97.437233   70.286087   29.889891
H   80.040207   62.078209   83.215317
H   53.550957   43.177532   47.644196
H   52.072193   28.777031    3.936197
H   73.761787    9.227836   91.322090
H   79.202026   71.595184   93.082924
H   31.589046   89.399864   87.692505
H   54.770607   73.637619   95.895233
H   17.994690   63.894569   23.436396
H   41.843807   98.295815   98.839485
H    7.837756   64.733521   24.421972
H   93.352303   39.122143   84.515694
H   68.680908   38.745720    9.762663
H   46.444752   99.180969   53.218174
H   87.742569   80.860298   96.613747
H   48.384247   67.281128   14.247403
H   67.639374    2.767381   74.442345
H   61.230328   22.550680   20.964712
H   88.665184   73.540024   16.440290
H   93.602562   87.809921    9.763189
H   92.890915   80.940201   88.319115
H   56.589115   62.812256   73.731064
H   56.432159   90.144936   83.272110
H   63.215862   30.397779   25.695406
H   43.051975   37.476715   22.452614
H   23.356937   56.134590   44.200844
H   44.698200   59.976257   22.570639
H   25.055885    0.363281   20.761242
H   19.433502   32.440086   56.043674
H    1.751285    5.645863   69.717422
H   11.367461    0.606422   78.756691
H   38.477692   58.509804   44.894638
H    6.704495   15.439307    8.793240
H   26.918579   31.089230   77.369896
H   72.753410   74.058243    3.863125
H   66.516609   66.994217   99.076355
H   18.603754   60.459389   84.454437
H   92.678940   77.432831   49.363346
H   92.223785   37.866261    5.355434
H   99.093628   16.752434   33.352707
H   62.210251   74.742157   83.199234
H   28.050758   92.023903   79.234863
H   83.253700   79.288818   49.554394
H   63.043045   77.488213   87.944916
H   14.103546   49.875443   83.601692
H   34.054790   34.209747   36.035576
H   80.049118   94.416473   93.856018
H   86.062126   34.996624   14.093763
H   77.875603   37.976711   97.780411
H   80.457253   27.237751   55.331184
H   61.481045   59.055614    6.871356
H   39.617275   22.562204   76.061989
H   75.512535   34.285183   90.736839
H   78.405136   52.319313   56.805107
H   39.006920   97.023727   71.347748
H   32.653923   86.935562   39.198803
H   32.050797   16.623693   53.542511
H    0.642076   72.485619   65.357475
H   33.496513   39.304337   12.997129
H    0.585547   49.574150   96.496063
H    4.480863   27.259850   35.777351
H   61.338860   81.096680   27.685257
H   91.571884   29.589605   74.636604
H   87.407547   39.874111   58.290253
H   91.993767   27.005402   71.743576
H   62.784588   87.951797   58.288628
H    5.192971   23.991528   25.371469
H   80.105598   10.432511   68.320587
H   43.381813   63.200722   66.552277
H   34.759567   37.157623   29.236404
H   42.852623   43.455872   60.607910
H   25.638170   10.454621   47.429665
H   96.781609   65.078056   96.572807
H   45.931896   10.603039   66.951744
