100
TIME:    5.958, STEP:  5958
H   14.407358   75.643242   93.691299
H   35.928902   27.718931   53.777363
H   82.175262    2.546845   53.407459
H   82.476639   87.180084   13.584151
H   41.805786   50.317398    4.160112
H   35.628628   94.753349   68.787804
H   40.711285   63.651760   56.376438
H   51.599243    4.045353   61.151058
H    7.168922   13.456080   25.051661
H   12.026728    1.931579   40.997532
H   46.056381    5.975698   65.843864
H   28.440575   22.334141   68.832146
H   63.874557    1.297786   33.004814
H   60.076210   86.711647   10.645840
H   52.969460   37.834610   64.378632
H   61.965668   90.620461   38.475311
H   45.000252   76.045509   15.768591
H   28.475927    4.922600   92.990761
H   38.064861   28.298609   77.251984
H   31.998131   79.287148   21.980921
H   10.720543   63.080555   95.533806
H   33.579605   51.993317   11.899506
H    6.194872   46.166191   61.885117
H   65.474846    8.103243   64.581650
H   16.492287   13.660088   80.541054
H   19.386396   50.526947   30.154312
H   48.314285   94.809402   18.181898
H   29.823345   34.538994   63.715431
H   40.722130   89.648590   75.534515
H   29.448700   43.379387   57.032364
H   50.541252   56.320225   38.000938
H   41.948917   87.899048   47.702141
H   90.030510   32.566170   34.540649
H   29.841976   27.707481   20.749914
H   32.672470    8.540188   87.529114
H   90.556641   52.085030    0.694381
H   51.248276   86.339966   77.932472
H   17.738235   49.920864   42.880558
H   93.582336   51.601555   66.937843
H    2.016812   54.415897    6.797049
H   28.064140   60.614014   82.713600
H   98.106079   64.967438   84.125603
H   62.560581   99.228302   31.827019
H   98.906235   12.647726   63.276627
H   39.843349   96.820969   65.952499
H    1.218406   76.556564    7.366225
H   88.281540   48.854630   82.656425
H   56.557606   56.735443   37.225178
H   39.187515   39.007980    6.806064
H   50.835033   21.415922   66.952560
H   43.092487   94.436707   16.234009
H   94.680763   10.881237   82.930397
H   32.459049   56.555237   56.838741
H   38.717461    9.990533   94.727257
H   66.410118   80.735886   51.024677
H    1.016441    6.266485   89.802414
H   73.962334   17.631462   22.642952
H   82.410797   14.227926   60.091171
H   60.170479   90.508781   54.085930
H   65.850906   85.739700   94.150902
H   35.536304    1.498241   49.862644
H   87.456856   72.485855   25.773125
H   78.549675    0.719423   24.912506
H   52.165543   74.218872   65.383240
H   68.807800   84.988815   50.411823
H   35.336479   46.083183   98.466789
H    9.546753   54.344204   54.714737
H   68.805916   58.281834   51.029453
H   53.849377   21.682442   86.557190
H   51.091980   47.812904   89.187286
H   32.840172   90.018417   90.677803
H   82.702530   53.790588   92.838577
H   18.518589   23.599533    8.983131
H   99.053001   72.336266   49.149071
H   49.429424   37.134960   53.055069
H   66.512093   89.424736   95.032043
H    7.902368   10.145826   96.418221
H   11.898005   61.142662   43.478432
H   47.219761   36.018200   84.155876
H    7.339366   84.458900    7.634165
H   27.460978   90.919907   36.084232
H   88.376633   83.109283   88.554008
H   94.730919    6.757733   97.352768
H   60.049438   21.998112   19.246204
H   62.224083   76.209358   70.191132
H   14.165791   27.900612   55.524841
H   65.076073   70.157646    7.643950
H   51.850029   28.308111   33.802582
H   79.328232   62.440239   79.462044
H   39.571468   64.149826   37.201462
H   67.848564   95.146912   59.283855
H   19.130564   43.577560   47.048775
H   67.372772    6.287748   79.745865
H   23.085468   74.638130   28.537722
H   53.581856   16.047848   52.994236
H   86.027939   60.456573   59.710495
H   89.684593    9.598048   94.539032
H   26.777010   81.259842   59.272697
H   24.887512   62.532894   45.992722
H    9.286257   25.743305   23.787327
