200
TIME:    0.525, STEP:   525
H   18.228662   61.529140   20.212900
H   30.504501   37.038837    1.467089
H   12.164309   81.612556   59.385979
H   27.449450   80.304909   37.047016
H   12.184225   90.952530   49.560886
H   80.347046   45.079647   57.113735
H    7.488364   55.101913   55.167759
H    9.275317    1.193262   14.956068
H   99.002686   83.233574   40.766846
H    0.828701   70.906731   84.830925
H   22.127424    0.682407    1.967934
H   31.956314   49.629902   26.321873
H   18.169147   96.466423   49.610924
H   90.933060   54.409367   55.999172
H    5.862045   74.138535   42.277355
H   20.993179   14.223640   48.174953
H   97.614624   21.066458    1.594854
H   29.794607   96.867790   38.446457
H   74.507881   19.383951   46.679295
H   90.962967   75.790794   26.422710
H   61.505371   90.985207   12.783404
H   83.684196   59.708000   59.591911
H   86.470779   60.469276   42.297791
H   14.644847   90.657562   90.692413
H   15.634109   24.166277   35.240788
H   18.425173   74.984489   97.543671
H    4.414908   64.515373   60.540833
H    1.050903   81.886292    1.481188
H   23.072243   47.867012   36.669529
H   80.170586   28.399128   88.767273
H   12.989402   63.356144   16.543257
H   26.743423   70.186020    0.619873
H   20.237045   15.118098   76.660332
H   86.994102   63.888855   43.271797
H   34.311604   78.024582   32.051235
H   23.751659   43.423824   82.744568
H   94.444473   68.277687   88.094521
H   18.817839   52.127541    2.353284
H   42.522346   36.195175   50.766682
H   87.349556   38.516499   52.563568
H   80.589111   91.910271   10.984089
H   27.524950   37.130611   31.380381
H   71.570328   81.234879   60.910976
H   36.646347   77.075981   28.941273
H   38.514774   84.990486   54.648720
H   37.049152    6.421424   45.787453
H   85.344864   12.249343    2.427791
H   83.177383   65.546257   37.401993
H   98.102287   17.936810   61.371811
H   51.918480   19.087648   93.655174
H   71.428528   66.888824   16.573929
H   10.243543   40.603374   69.669121
H   59.862972   86.269257   11.654466
H   18.164927   88.198029   85.923630
H   65.135452   70.046623   81.556168
H    1.652157   65.328995   87.980652
H    4.617131   17.823952   46.597416
H   70.522385   65.204720    0.159533
H   22.167377   79.982986   14.019533
H   36.511665   94.388832   61.725716
H   49.496494    9.815979   33.909725
H   95.058372   17.100027   51.250778
H   79.298988   31.110447   75.269821
H   31.031317   65.558945   10.030727
H   75.929787   80.327805   29.583721
H   27.559921   27.633598   37.986130
H   75.529396   17.150377   91.723335
H   95.745430   92.097893   92.914062
H   26.659977    9.704614   58.372513
H   43.596397   46.597351   50.967373
H   58.340137   81.521446   80.904709
H   24.130636   16.330559   42.769836
H   86.539200   30.590237   89.952415
H   17.150261    2.700195   68.869606
H   82.615341    5.485066   54.212029
H   60.517471    9.014860   61.015118
H   94.222977   40.560070   68.114281
H   15.999183   11.159634   38.221977
H   13.697327   42.390800   28.626240
H   63.981689   89.077477   80.745697
H   55.464161   25.285259   96.902542
H   39.168251   63.465126   79.046654
H    9.887791   16.792511   81.940979
H   15.380234   71.178978    3.140351
H   28.759312    2.337598   49.705471
H   32.696598   75.802628   21.850033
H   48.628597    3.377986    2.424712
H   72.961418    7.936980   22.191767
H   74.408981   72.750923   78.197205
H   22.016651   98.821625   51.730053
H   29.295828   37.353104   79.486824
H   82.070221   91.035995    4.586474
H   60.798454   13.647825   87.612877
H   47.247963   84.194504   76.930252
H   32.346527   53.071030   79.809708
H   57.469551   34.081310   15.661545
H   83.171638    4.421583   10.603421
H   99.059937   32.867268   51.291973
H   30.560005   66.923073   53.891247
H   72.159836    2.558422   27.319986
H   22.581877   88.306335   82.360054
H    1.170134   80.968361   64.292526
H   29.087179   26.754410   34.485420
H   35.570534   68.465683    1.480078
H   24.960941   23.727367   34.327553
H   98.705948   12.819359   30.547642
H   79.159012   33.635582   54.932861
H   63.071976   45.216930    7.721116
H   80.039413   36.492146   12.913792
H   13.521949   24.086714    6.932127
H   50.944256   93.590164    0.996369
H   97.437706   70.512146   93.757507
H   52.144070   83.581886   87.736221
H   62.258751   13.253099   67.604584
H   54.339531   93.836319   16.779764
H    2.407486   97.460014   91.791481
H   20.857220   12.455795   87.502548
H   39.325153   41.024475   28.281639
H   29.685848   68.413719   69.454041
H   78.303802   52.363033   59.974377
H   43.529121   23.653316   78.180878
H    5.991928   20.728588   56.571476
H   39.107430    9.802468   32.483704
H   99.878273   57.063023    5.384618
H   68.388466    1.895600   83.387207
H   58.163708   70.149979   20.028580
H   88.302513   50.520645   60.048065
H   69.194733   89.805229   37.409611
H   95.974991   42.167336   78.395401
H   81.559013   22.798513   71.356995
H   60.113586   75.009613   14.302799
H   70.760712   88.878067   16.047985
H   91.507118   96.460739   99.495171
H   86.945839   20.310135   53.214954
H   18.505367   96.216873   43.320610
H   54.767326    1.261079   79.482880
H   69.364555   87.290764   69.526474
H   93.649300   55.322311   78.695236
H   53.762650   48.319267   71.482681
H   43.602325   95.421242   87.538406
H   64.727196   54.687527   24.116226
H   44.118103   49.670284   52.890701
H   45.843761   62.006676   89.771324
H   44.653770   16.211214   82.847176
H   53.698277   60.315056   58.387928
H   56.382580   66.885925   16.196514
H   51.471825   95.529701   45.241241
H   34.870346   62.809906   67.189842
H   72.804291   52.893070   95.111244
H   18.546877   91.786331   79.331612
H   66.174599   66.150116   49.192650
H   45.784496   99.223816   39.221073
H   89.415535   21.181965   93.459938
H   17.443785    7.684496   68.909714
H   24.913864   61.405647   65.909348
H   71.962601   44.235577   62.829136
H   62.294506   69.430672   84.130417
H   50.098019   32.087181   16.401102
H   99.337891    0.660467   92.035461
H   60.484428   45.315247   89.178192
H   56.755459   72.830826   75.838181
H   30.222916   21.579355   33.074970
H   77.487190   22.144033   37.113548
H   21.736031   28.552101   59.005329
H   56.225342   31.758905   12.624871
H   16.823984   55.371056   60.743881
H   69.992264   92.957283   55.242996
H   23.881180   43.899464   59.797840
H   97.945526   27.243382   36.183964
H   39.478992    8.308983   87.193970
H   73.920349    9.023129   35.952156
H   36.317360   54.861301   58.333302
H   43.179554   65.208145   82.404922
H   67.716492   67.720978   80.851555
H   58.191559   92.892609   85.830734
H    9.706561   49.200310   23.560173
H   32.489944   61.824139   98.830078
H    4.255888    9.472656   68.524460
H   68.313057   14.754185   65.801521
H   72.743286   57.512276   90.405426
H   76.214531   95.402466   35.092884
H   24.976177   30.453945   80.020561
H   52.513153   89.867714   11.712975
H   57.687397   25.747772   87.675133
H   89.208534   75.973045   77.222672
H    5.226799   38.628632   85.380592
H   41.275848   99.642761    5.580063
H   76.728996   79.296700   35.498974
H   98.364876   62.444328   69.800629
H   54.796200   56.722980   69.303787
H   61.435135   21.595158   77.266243
H   45.316547   92.674332   20.994265
H   10.430983   24.304277   64.334839
H   30.124447   74.905296   39.056900
H   75.114258   41.525444   20.884020
H   76.023941   11.082780   25.661734
H   11.355706   93.330635   13.086225
H   20.626743   91.741928   38.929127
H    8.112770   12.409348   65.270866
H    5.035226   25.337042   93.789253
