100
TIME:    0.368, STEP:   368
H   92.436440   88.273903   98.809097
H   91.033607   24.697098    1.213866
H   86.087189    0.379651   19.018944
H   81.538376   17.488516   19.991583
H   91.874908    2.254343   55.727074
H   22.309853    0.813128   15.189554
H   33.683941   86.186668   19.230852
H   90.962219   20.439007   74.406075
H   44.581856   50.911728   76.923470
H   64.783730   21.670036   22.099955
H   66.024567   81.049881    4.302208
H   41.795635   42.136513   66.734398
H   19.854244   39.442978   88.552727
H   36.860676    3.942638   85.244942
H   84.978493   37.151817   33.082592
H   86.727234   79.549690    2.492636
H   94.479912    6.333444    6.860612
H    9.008544   76.804749   86.788376
H   50.994644   93.790283   82.750183
H   82.687965   97.816162   41.293724
H   42.438904   19.581551   47.254196
H   97.633949   44.585655   87.921028
H   80.830696   91.629295   21.821350
H   84.850327   41.095341   79.744339
H   16.421778   56.989353   39.275955
H   44.971607   16.644299   54.680260
H   30.345354   27.179310    7.268672
H    1.490778   73.616180   78.939102
H   19.173111   82.479973   39.776154
H   15.104522   81.731735   12.643684
H   30.577822   55.042915   80.291496
H   88.993195   42.343529   65.196480
H   96.278748   41.557228   30.949301
H   93.650734   39.997620   56.247826
H   71.624611   31.102310   47.136391
H    4.550950   13.393946   19.378096
H   15.095342   91.058449   37.462170
H   48.779190   52.218777   48.409405
H   34.176105   72.652275    6.855121
H   28.532280   77.732704   66.988640
H   10.093616   68.806068   51.010242
H   98.547417   28.373438   20.089254
H   14.410987   65.706726   28.054470
H   55.859970   18.938848   16.713005
H   24.734535   17.372356   87.597961
H   73.251488   70.122124   84.761406
H   39.965809   45.593021   30.767767
H   56.259068   99.171921   91.347717
H   75.785637    1.972289   29.793898
H   33.607922   36.350590   57.925362
H   43.516544   34.115929   57.297016
H   23.016718   29.590958   49.904259
H   16.512728   24.142517   81.497658
H   68.165588    1.197615   48.054890
H   11.462534   90.765564    3.528791
H   94.026688   12.145193   80.099213
H   19.581856   78.928383   90.987221
H   98.656921   42.133751    4.075827
H   19.300659   54.317688   83.232254
H   34.734268   56.074471   53.142784
H   82.914200   61.455482   85.703522
H   85.850098   24.520065   78.704620
H   99.193489   82.058479    8.311767
H   68.310310   43.796310   17.148748
H   46.929207   31.452286   29.831984
H   78.738594   23.978748   67.944893
H   58.043419   61.083073   84.828964
H   54.945534   38.583969   83.795128
H   75.244225   23.344185   37.152386
H   37.841209   66.654442    0.956916
H   10.346365   70.365837   57.733829
H   43.623554   39.312386   83.565132
H   82.997238    0.105213   52.313343
H   22.090988   26.091600   81.337273
H   79.913986   29.167318   29.295200
H   34.358440   31.157545   71.166946
H    0.366534   94.648552   97.545105
H   49.269638   26.657780   34.763554
H   79.192345   52.424023   21.791786
H   81.478073   88.912361   89.217712
H   18.083279   33.088787    1.983505
H   68.935341   46.630875   56.008240
H   41.080303   13.399707   64.950043
H   75.485443   43.651829   29.817421
H   34.411636   25.865005   12.078916
H   42.823498   22.571091   67.338280
H   91.732597   76.596321   41.090816
H   61.879242   75.831093   91.913826
H   63.320015   73.682610   25.189934
H   33.799904   94.144455   37.367565
H   39.082645   93.302826   41.233227
H    5.514992   23.183058   40.535820
H    8.895775   38.657440   47.384453
H   82.796486   35.554367   51.630268
H   50.229588   16.766003   24.542736
H   24.316910   81.199455   48.441322
H   33.391869   88.799278   16.025032
H    8.216331   19.370972   50.147491
H   91.181511   38.436596   14.226643
H   62.095531   69.251884   62.242416
