100
TIME:    3.485, STEP:  3485
H   81.646149    2.429141   95.955399
H    4.328053   93.695526   97.832809
H   39.658737   24.628571   82.432549
H   82.061554   89.067497   49.139103
H   63.956223   52.095623   71.212097
H   73.981331   97.432533   23.876978
H   70.320137   96.660713   62.984474
H   45.972168   90.098984   88.212685
H   67.959984   51.224884   80.719078
H   79.605293   66.422798   44.159737
H   76.088821    6.469139    4.057001
H   22.827415   98.375916   44.862587
H   21.581894   50.860092   78.747978
H   82.524361   94.334114   22.449879
H   22.891819   58.732986   83.251961
H   61.400253    6.918228   43.756203
H   43.864235   12.477128   90.641647
H   75.613853   25.225273   78.724792
H   99.548714   24.552996   46.964703
H   98.629051   31.808516   53.607628
H   57.471878    9.274033   62.651215
H   96.490692   48.710373   22.498306
H   39.214256   66.278938   32.641418
H   95.247215   78.478790   48.247700
H    4.941133    9.780762   62.277321
H   30.678232   23.768618   62.520958
H   61.564388   97.608902   69.120583
H   38.487713   19.107712   81.967674
H   86.948456   65.278427   92.435066
H   34.622864    4.585866   60.436005
H   53.213200   34.562405   33.656837
H   85.802315   56.222404   76.640160
H   15.835844   13.503246   11.753278
H   25.351223   54.343269   24.933075
H   94.142761   95.480705   36.940186
H   75.564369   58.251118    8.657296
H   14.056195   76.907211   83.069756
H   19.951103   95.170982   68.367149
H   97.968292    5.486151    6.590129
H   34.945591   85.929291   12.226404
H   97.077240   75.761322   24.450788
H   18.409233   68.268661   66.529480
H   41.259182   84.398453   53.198124
H   56.818069   71.179077   21.479105
H   54.357014   94.391998   54.331844
H   33.126347   29.387836   97.318855
H   68.961227   14.363778   58.917084
H   56.425533   31.264601   84.209999
H   66.897263   43.821373    5.455022
H   98.968681   83.783409   39.918552
H   43.278736   33.189651   90.162109
H   74.497345   40.357292   45.278820
H   81.166466   42.215942    0.465405
H   95.990837   50.347397   85.600433
H   63.312424   64.001160   29.988325
H   97.926743    8.868628   73.989182
H   17.186327   88.988319   87.439873
H   66.555901   47.772568   23.790241
H   65.130150   86.018097   43.938076
H   29.044876   95.655960   64.488899
H   79.536964   16.504116   42.677364
H   75.225151   95.504196   37.669617
H   10.656514   69.472954   94.493553
H   82.348564   60.752037   32.522915
H   70.649696   82.503090   20.112097
H   87.256203   69.023170   52.244202
H    7.960137   68.845856   35.318829
H   39.633080   16.848066   32.805752
H   30.594055   99.376465   41.659916
H    0.993019   23.427599   94.394714
H   11.367359   58.280510   20.343449
H   86.612900   35.864883   11.776698
H   79.762756   45.923038   72.394279
H   53.495525   28.841316   96.087761
H   30.197844   33.606739   65.584633
H    8.043185   30.928095   61.431995
H   83.370613   24.489666   52.683369
H   95.711960   22.844526    6.902375
H   28.631323   43.282185   56.566521
H   28.614479   19.152714   20.685226
H   79.075211   65.335587   88.279419
H    2.807174   66.987259   95.363525
H   38.294849   65.428192   61.828922
H   89.912598   10.377769   45.115501
H   82.638428   30.895725    9.920721
H   71.086670   37.064011   83.792099
H   99.909981   49.965034   89.721481
H   12.053923   26.276657   59.499863
H   28.007919    0.133515   99.687996
H   58.218525   65.895218   48.796806
H   66.643158   61.610027    7.058633
H   36.148270   57.596573   99.930916
H    8.849729   32.084404   88.504845
H   84.066322   24.623260   61.792953
H   96.335594   37.564793   96.169334
H   81.768280   58.112251   87.444008
H   85.979675   67.677620   36.764320
H   19.658949   45.910370    0.273392
H   42.695976   51.872761   53.132347
H   55.676525   89.203102   62.019554
