100
TIME:    4.897, STEP:  4897
H   86.158607   72.941505   94.662674
H   65.232033   70.226273   86.877380
H   63.929642   26.213425   65.864128
H   82.298553   30.894787   71.742928
H   51.309067   65.273651   32.925903
H   52.085331   95.902809   63.713444
H   96.319084   92.006042   73.404785
H   34.991753   12.255231   58.568508
H   33.250328   15.466938   91.837959
H   41.017464   86.697029   99.449127
H   44.748016   63.283970   68.044830
H   68.937813   69.151985   44.354881
H   31.579330   65.459007   38.431396
H   12.610869   89.981941   29.903971
H   40.066368   32.607269   15.377497
H    4.625580   83.419449   26.547539
H   30.319618    5.870111   19.181578
H    5.787050   56.545185   29.770216
H   21.540836   83.788498   21.355555
H   60.580826    1.822693   49.743141
H   73.681801   68.706268   24.331623
H   31.860504   50.584824    2.253503
H   20.362022   54.795235   92.240570
H   64.057129   95.410614   43.379440
H   54.438995   97.802155   72.705299
H   24.223032   81.889633   29.926714
H   39.805084   38.914600   97.129616
H   19.347462   85.015121   28.640718
H   17.651985   93.386406   25.687897
H   88.766479   69.638878   72.686134
H    8.782144   61.178097   21.943886
H   74.956825   17.214439   45.924217
H   15.295040   10.194750   38.957390
H   85.011063   24.941803   65.448311
H   59.045288   88.744339   22.921669
H   98.325867   68.982674    4.031300
H   49.484642   25.197517   94.329880
H   61.587994   69.338036   68.008080
H   38.369053   74.720268   69.756638
H    1.951154   53.743126   23.319738
H    0.576999   24.211752   57.716900
H   91.506004   31.637339   32.864376
H   53.421566   92.865799   55.188499
H   66.652344   94.838806   59.538116
H   31.877554   38.680466   75.159935
H   14.909540   56.319599    3.054678
H   79.992477   91.152855   72.473183
H   56.500942   45.807480   71.576546
H    8.176384   26.880283   49.131737
H   28.582462    5.266821   41.161163
H   43.171009   96.869354    5.049078
H   43.116966    9.334005   52.583969
H   10.449832   50.403198   18.458445
H   63.285141   27.304581   47.907005
H   50.888763   87.752449   41.998989
H   99.693466    7.382554   25.921371
H    6.701267   48.245949   21.733025
H   61.414688   14.426300   87.419174
H   76.492195   45.679672   35.537506
H   35.867130    4.186919   24.328255
H   68.607147   50.837879   32.587189
H   25.111269   82.361496   73.781662
H    6.517228   73.120529   97.668457
H   79.308327   68.439194   94.184494
H   26.692053   69.729736   51.605534
H    0.515678   98.828819   35.732185
H   94.672607   17.665138    3.488750
H   42.096565   97.601273    0.307518
H    0.966597   97.919151   53.102341
H   29.599867   94.446777   91.421448
H   66.530678   62.208176    3.403712
H   70.186249   89.002914   15.156783
H   87.697433   76.079903   36.189713
H   22.406879   39.487682   12.190617
H   98.276131   35.621235   72.623749
H   41.427155   21.424086   66.422256
H   11.570452    2.106496   77.654503
H   62.050289   30.517197   84.882805
H   96.342918   39.134693   72.321297
H   59.367065   42.252728   99.040405
H    6.698689   79.943375   72.671227
H    8.752542   76.208694   77.293236
H   27.620745   89.014465   96.308823
H   87.055527   31.206308   16.152176
H   13.885686   42.575165   73.043205
H   38.587765   88.929405   81.845673
H   94.214272   47.301132   57.051407
H   34.779602   13.229122   44.816666
H   57.310410   21.515039   88.139656
H   33.377804    7.798370   99.274460
H   24.428123   37.855701   36.877483
H   40.627308   63.780457   26.836088
H   99.360832   74.456108   97.697067
H   20.541115   10.271493   56.997120
H   71.924644   11.085602   28.613297
H   98.393677    2.355051   14.512739
H   73.901604   48.709377   55.558075
H   24.840620   57.932709   77.672356
H   75.431366   57.959339   34.862099
H   43.381908   52.967007   25.996649
