200
TIME:    0.409, STEP:   409
H   14.664244   61.914120   18.229372
H   29.470589   35.345371   96.757904
H   14.595541   76.535255   53.672356
H   23.539255   78.949074   40.080387
H   13.415827   88.012527   51.228687
H   84.120728   48.228069   60.547131
H    5.807731   55.184219   52.922489
H    6.675822   96.184204   19.073547
H   94.291779   84.972618   43.596664
H    4.912102   72.531609   89.406425
H   18.084257   98.204414   98.302231
H   31.476639   46.533695   20.794765
H   15.322070   92.616631   54.365196
H   96.415695   53.919956   50.409451
H   11.462519   73.245560   42.562771
H   24.374359   19.003136   50.677319
H   92.157654   15.633604    7.226835
H   32.549023   91.291344   40.511627
H   70.648354   23.583544   44.971668
H   90.593918   77.383812   30.919445
H   60.113251   85.194588   18.097820
H   86.266655   55.274101   64.062096
H   89.944443   61.312691   45.081146
H   12.187839   89.599976   91.056152
H   10.592098   19.500948   39.379978
H   18.521196   69.836388    1.374876
H    2.168454   62.187794   55.876831
H   98.388702   77.101044    1.175956
H   18.186546   51.392891   37.348774
H   85.412498   25.291637   92.779907
H   13.140849   58.509830   16.401434
H   28.852844   67.467270   97.763916
H   23.039871   12.622039   75.243431
H   90.833275   63.762299   41.244240
H   39.878315   82.817795   32.933590
H   27.540829   46.068676   81.414398
H   91.115067   70.781380   87.223671
H   24.555578   49.126915    7.568876
H   46.815529   40.348969   48.188206
H   88.462013   38.993519   57.094818
H   80.554596   97.329185    7.133756
H   21.751146   39.563061   34.820011
H   73.658951   83.899643   56.603634
H   36.904770   71.442009   24.792568
H   34.551258   81.451332   50.462624
H   38.681553    9.440303   44.525871
H   83.158890   17.932507   99.884651
H   86.001450   65.548027   41.572159
H   93.616173   22.338848   61.288177
H   56.069618   18.564165   98.562553
H   74.187988   68.357056   21.171112
H   14.677773   38.606792   67.175163
H   56.734035   89.585815   10.139171
H   19.891359   85.750092   84.205826
H   70.045486   72.626427   85.307724
H    3.139194   68.186691   84.182190
H    4.948180   17.384987   47.841740
H   69.255051   62.508099    2.253199
H   24.615093   77.742142   11.213942
H   39.194572   95.040199   63.870094
H   49.872181   12.079170   37.298870
H   92.973289   16.825232   50.361351
H   76.103218   28.707424   79.183334
H   28.220747   65.393448    7.440758
H   74.065071   78.598495   24.840290
H   32.110416   23.126907   35.901047
H   79.862404   19.597208   89.326729
H   96.395027   91.834160   90.617462
H   22.533840    8.137040   59.840744
H   44.264137   44.575546   50.973568
H   58.391026   79.515129   77.801865
H   27.390791   19.379639   43.581833
H   82.857559   28.584805   93.836723
H   13.371124    5.249964   65.492409
H   81.202866    3.607296   59.666344
H   57.585434   13.110132   61.773129
H   94.713272   36.241665   69.755089
H   20.295683    9.047337   42.188591
H   12.815414   37.222786   31.195423
H   65.729591   89.724419   86.246918
H   50.540852   27.245777   98.624771
H   34.067497   65.551208   82.632713
H   10.340363   15.520089   85.334991
H   19.162987   67.385826   99.359711
H   32.890095    1.110946   52.992840
H   29.428526   79.861282   24.264782
H   43.429607    3.136268    2.158767
H   73.926079   12.254390   17.816500
H   70.858322   72.468605   77.779480
H   22.597660   93.622192   53.006237
H   34.158390   36.351715   80.002785
H   82.878235   90.018234    2.055401
H   55.287941   14.956091   90.916618
H   52.449608   88.362015   73.745102
H   29.407213   54.640152   74.978439
H   62.273384   31.487789   21.115631
H   81.598091    8.433825    5.607625
H    2.248779   31.064829   50.193676
H   33.188484   68.085091   53.480160
H   70.142899    0.673636   27.291666
H   17.406340   85.099060   76.897774
H   96.856682   79.213387   64.932388
H   26.682608   30.993828   32.864525
H   29.996662   68.251511   96.873528
H   25.114712   25.251797   30.566704
H   94.113632   18.498688   35.978565
H   73.663986   32.195229   55.472717
H   63.755646   40.763119   12.206674
H   77.091446   37.956394    7.304600
H    9.795615   25.704069    6.364394
H   49.418056   94.598190    0.914755
H   92.779900   67.595154   92.436188
H   54.158794   82.235786   90.259384
H   62.651695   15.753916   70.595917
H   58.210564   89.005936   20.847048
H    7.141504    0.853253   86.558418
H   25.626537   10.822399   86.150253
H   39.913685   35.314835   30.600365
H   25.280491   64.058586   75.187134
H   75.242554   50.047848   55.647121
H   42.318428   22.882473   81.981995
H   10.997078   23.476543   53.159321
H   36.310799   14.694913   29.042534
H    1.587346   61.237171   10.464435
H   71.859474    4.767713   87.223724
H   53.913891   66.976334   22.268318
H   91.185875   49.979019   64.527985
H   71.732056   88.895439   36.429905
H   94.547470   46.366264   81.038925
H   75.936546   23.348326   69.380768
H   55.431000   79.151459    9.869785
H   75.213196   87.727554   13.312421
H   91.885902   90.817032   98.632286
H   92.633797   17.336060   51.787434
H   12.774866   98.314346   48.651024
H   57.856895    1.409955   81.191833
H   69.172508   86.995171   63.751785
H   92.659859   58.944214   80.528091
H   50.730606   46.697044   71.510117
H   43.539490    0.984479   90.761612
H   58.984364   58.098797   20.369095
H   49.458252   46.145733   50.186554
H   49.572750   59.871590   93.683952
H   49.969139   20.410143   80.924934
H   48.245731   64.162193   54.594776
H   52.132320   64.887573   21.752163
H   48.728294   96.037697   46.071823
H   38.037796   67.127869   67.855370
H   69.703217   57.736286   96.264412
H   14.849120   90.519882   83.672585
H   70.263344   64.180084   50.068367
H   40.901455    2.433554   42.856251
H   84.026711   25.519398   97.531868
H   14.377389    5.021889   71.776260
H   20.314026   58.342186   63.810947
H   68.519028   43.947948   59.260334
H   61.080273   65.951698   82.756882
H   48.448803   33.948357   13.683458
H    4.647013    1.097545   96.337494
H   61.784950   50.048279   84.726593
H   55.616009   77.543503   78.922440
H   35.669338   22.180498   34.079899
H   72.493965   27.201643   37.161781
H   17.478027   25.144371   63.968021
H   57.336029   27.822824   11.485089
H   14.825410   59.061989   61.377991
H   71.989731   94.833504   54.013275
H   23.779846   38.621708   55.001087
H   96.369324   27.620617   36.457874
H   34.185307    9.184368   88.500244
H   76.136414    7.643621   35.961891
H   40.324684   59.169971   57.977085
H   40.938267   70.192520   85.668839
H   69.144897   70.495483   78.160240
H   63.583038   93.765228   91.285049
H    6.125148   48.573723   23.448883
H   33.681610   58.200466   93.977570
H    3.227804    9.362030   67.041183
H   71.279610   17.450861   67.158241
H   78.261322   56.267952   88.769043
H   78.332359   91.245575   37.789951
H   22.636433   30.312344   75.785789
H   57.854591   89.990402    9.414859
H   55.161137   25.533157   83.407616
H   87.708443   81.004326   77.700577
H    2.798388   37.649811   84.800026
H   37.236664    1.629728    3.009763
H   82.301903   74.383125   31.439909
H    1.724260   61.927040   68.474884
H   52.686779   57.353992   67.838211
H   55.893646   25.433002   78.094612
H   46.267490   89.521927   22.471788
H    7.854384   21.544596   61.677540
H   32.150913   70.275810   36.719147
H   79.095032   46.706734   21.263468
H   75.740738   10.798139   27.250990
H   10.584641   90.167610    9.170941
H   23.997967   94.047379   42.200565
H    9.659657   12.084770   70.458794
H    6.245090   29.267149   95.400856
