100
TIME:    0.389, STEP:   389
H   91.016273   86.348091   98.789871
H   90.449455   25.835682    2.538510
H   86.447998    1.890455   18.772369
H   81.541901   16.623262   18.840502
H   91.686813    3.937585   55.157661
H   21.984211    0.790272   17.269270
H   32.583408   87.604591   20.873079
H   89.311661   22.255711   72.478020
H   44.065636   48.892670   75.601677
H   64.209831   21.971485   22.922350
H   64.071198   81.894867    2.279393
H   40.994068   43.189140   65.239571
H   18.518433   38.172455   86.465416
H   35.820866    3.877891   86.842949
H   85.233879   35.276154   32.073063
H   85.882889   77.712959    0.749489
H   92.791542    7.722187    8.772605
H    9.457273   75.783524   86.060349
H   51.321648   94.671158   83.856644
H   82.119514   97.375885   42.726387
H   41.192734   17.490875   46.684303
H   99.647560   44.613373   86.133003
H   80.550316   91.458504   21.220455
H   82.899200   41.347202   78.184784
H   15.670759   55.323895   39.431046
H   44.875317   16.018570   52.711990
H   28.534498   26.306366    7.685377
H   99.718895   74.596390   79.633163
H   19.629730   84.385277   38.783447
H   15.909734   81.211990   14.313068
H   31.403902   56.926109   78.629723
H   90.319153   41.763382   63.252403
H   97.757874   40.020744   32.841148
H   94.538017   38.073090   55.363106
H   71.102623   29.514877   48.415085
H    6.376866   15.043623   19.305838
H   17.109512   90.289406   39.116894
H   47.911293   51.834415   49.891254
H   33.231945   72.203987    4.842331
H   26.554317   75.766838   68.640800
H    8.658550   69.526726   51.505154
H   96.660057   29.315996   21.075872
H   14.591832   65.832657   29.571327
H   54.518951   19.290766   18.766270
H   22.912945   16.543793   89.394958
H   72.983284   70.516899   84.843758
H   40.187550   46.725918   30.947210
H   56.260189   99.388214   92.647079
H   76.399590    0.233120   28.956202
H   34.048359   36.670223   56.456650
H   43.514942   32.088539   57.518436
H   24.037222   27.642315   48.525589
H   16.948359   24.264282   80.278084
H   67.679489    0.854949   48.981586
H    9.790707   92.606461    3.706983
H   94.052963   12.123123   79.384323
H   20.913101   78.322441   92.984489
H   97.093201   40.150581    3.534893
H   20.956825   55.204971   81.620148
H   33.348549   57.688660   52.545494
H   84.238876   60.478958   84.066101
H   85.104767   24.324600   77.754532
H    0.617870   80.626457    6.871068
H   69.752266   43.910545   16.578535
H   47.762817   29.775051   31.787676
H   77.448524   22.934772   69.186577
H   56.358574   61.809017   85.842819
H   53.494926   39.784958   84.799049
H   76.290764   21.835258   35.835239
H   38.266586   67.710594    0.912756
H    9.679461   68.937019   57.481968
H   41.892086   38.615440   85.102577
H   81.628021   99.066383   51.774853
H   21.628761   24.762678   80.089180
H   80.926559   29.197199   30.887199
H   34.854954   32.503479   69.753830
H    2.273216   92.828484   97.916809
H   50.256256   25.284637   35.923367
H   80.198830   52.362659   22.025944
H   80.448196   87.768730   87.408539
H   18.494236   33.306042    3.238597
H   70.510918   46.768021   54.252098
H   42.408985   13.750222   66.950195
H   76.929962   45.448826   27.899300
H   33.389130   24.551384   10.043235
H   42.340122   23.342457   68.796577
H   93.135139   75.069450   42.092175
H   62.217300   74.149773   91.695610
H   63.755806   72.513344   25.018101
H   31.943302   93.280243   38.118343
H   39.942051   94.436844   41.676708
H    7.068799   24.762400   40.935883
H   10.243122   39.286613   49.009056
H   84.826118   36.828255   53.046108
H   49.866535   14.884892   25.025230
H   26.051422   80.370171   47.356651
H   31.724981   90.004433   14.817274
H    8.293435   19.549774   49.811516
H   90.181114   38.527119   12.467617
H   63.399700   68.712593   60.219833
