200
TIME:    0.311, STEP:   311
H   11.652866   62.239361   16.553633
H   28.597111   33.914684   92.779495
H   16.649542   72.245811   48.845329
H   20.235815   77.803627   42.643063
H   14.456318   85.528732   52.637691
H   87.308838   50.887943   63.447758
H    4.387885   55.253754   51.025623
H    4.479697   91.952332   22.552132
H   90.311874   86.441811   45.987373
H    8.361858   73.904350   93.271935
H   14.668441   96.110909   95.205338
H   31.071396   43.917934   16.125313
H   12.916781   89.364220   58.381737
H    1.047663   53.506489   45.687099
H   16.193939   72.491150   42.803898
H   27.230873   23.040985   52.791386
H   87.547455   11.043779   11.984888
H   34.876179   86.580208   42.256340
H   67.387718   27.131475   43.529018
H   90.282135   78.729637   34.718410
H   58.937149   80.302513   22.587643
H   88.448387   51.528221   67.838631
H   92.879089   62.025230   47.432602
H   10.112090   88.706497   91.363449
H    6.332486   15.559539   42.876881
H   18.602320   65.487129    4.611586
H    0.270594   60.221394   51.936554
H   96.139679   73.058334    0.918090
H   14.058976   54.371651   37.922619
H   89.841011   22.666344   96.169891
H   13.268796   54.415531   16.281618
H   30.634941   65.170395   95.351151
H   25.407776   10.513299   74.046394
H   94.076714   63.655380   39.531303
H   44.581226   86.867233   33.679028
H   30.742023   48.303120   80.290634
H   88.302292   72.896568   86.487953
H   29.402979   46.591904   11.975145
H   50.442528   43.858208   46.009838
H   89.401848   39.396519   60.922943
H   80.525436    1.907165    3.880924
H   16.873278   41.618061   37.725872
H   75.423477   86.150909   52.964672
H   37.123093   66.682274   21.287628
H   31.202816   78.461357   46.926094
H   40.060650   11.990735   43.460052
H   81.312119   22.733738   97.735817
H   88.387299   65.549522   45.095230
H   89.826180   26.057812   61.217522
H   59.576614   18.121912    2.708603
H   76.519257   69.597458   25.054939
H   18.423994   36.920025   65.068199
H   54.091358   92.390366    8.857085
H   21.349897   83.682007   82.754578
H   74.193619   74.805916   88.477142
H    4.395485   70.600952   80.973145
H    5.227859   17.014137   48.892979
H   68.184372   60.229916    4.021978
H   26.682991   75.849014    8.843700
H   41.461166   95.590492   65.681725
H   50.189571   13.991177   40.162113
H   91.212364   16.593077   49.610306
H   73.403343   26.677284   82.489578
H   25.846300   65.253632    5.252717
H   72.489708   77.137527   20.832909
H   35.954617   19.319530   34.139511
H   83.523048   21.664358   87.302010
H   96.943825   91.611351   88.677231
H   19.047966    6.812711   61.081146
H   44.828262   42.867470   50.978802
H   58.434017   77.820137   75.180496
H   30.145060   21.955585   44.267830
H   79.747208   26.890560   97.118294
H   10.178434    7.404078   62.639435
H   80.009567    2.020905   64.274300
H   55.108368   16.569946   62.413517
H   95.127487   32.593357   71.141289
H   23.925486    7.262810   45.539696
H   12.070351   32.856705   33.365940
H   67.206261   90.270973   90.894501
H   46.381504   28.902077    0.079736
H   29.758337   67.313492   85.662315
H   10.722708   14.445111   88.202347
H   22.358761   64.181267   96.165619
H   36.379894    0.074633   55.770100
H   26.667528   83.290146   26.304829
H   39.037357    2.932057    1.934092
H   74.741051   15.901856   14.120154
H   67.859550   72.227257   77.424713
H   23.088512   89.229568   54.084393
H   38.266521   35.505714   80.438683
H   83.560867   89.158401   99.917068
H   50.632507   16.061350   93.707710
H   56.844101   91.882843   71.054199
H   26.923979   55.965790   70.896851
H   66.331795   29.296711   25.723400
H   80.268715   11.823435    1.387028
H    4.942860   29.541990   49.265804
H   35.409096   69.066795   53.132862
H   68.438934   99.081177   27.267740
H   13.033966   82.389465   72.283089
H   93.212486   77.730736   65.472961
H   24.651159   34.575272   31.495077
H   25.287582   68.070572   92.981850
H   25.244621   26.539677   27.389435
H   90.233917   23.296741   40.566708
H   69.021637   30.978376   55.928802
H   64.333015   37.000416   15.996200
H   74.600922   39.193432    2.565800
H    6.647506   27.070456    5.884757
H   48.128681   95.449799    0.845804
H   88.844856   65.130798   91.319901
H   55.860889   81.098564   92.391022
H   62.983665   17.866674   73.123077
H   61.480919   84.925095   24.283201
H   11.140942    3.720215   82.137383
H   29.655788    9.442461   85.007797
H   40.410892   30.491173   32.559288
H   21.558723   60.379253   80.030609
H   72.656326   48.091915   51.991337
H   41.295601   22.231243   85.193283
H   15.225586   25.798092   50.276638
H   33.948128   18.828121   26.135365
H    3.031230   64.763687   14.756028
H   74.791878    7.194170   90.464920
H   50.323528   64.295151   24.160511
H   93.621819   49.521439   68.312744
H   73.875656   88.126823   35.602222
H   93.341461   49.913635   83.272247
H   71.186531   23.812822   67.711197
H   51.475021   82.650604    6.124653
H   78.974777   86.755569   11.001340
H   92.205910   86.049072   97.903297
H   97.439140   14.823363   50.581104
H    7.933541    0.086347   53.154305
H   60.467049    1.535728   82.635605
H   69.010262   86.745445   58.873169
H   91.823952   62.004097   82.076538
H   48.169052   45.326546   71.533295
H   43.486404    5.684683   93.484665
H   54.132664   60.980732   17.203415
H   53.969757   43.168095   47.902016
H   52.723103   58.067810   96.989449
H   54.459709   23.957525   79.300972
H   43.639271   67.412361   51.390217
H   48.541584   63.199131   26.445728
H   46.410484   96.466866   46.773521
H   40.713745   70.775803   68.417625
H   67.083344   61.827969   97.238640
H   11.725217   89.449951   87.339958
H   73.717628   62.515743   50.808197
H   36.776127    5.145172   45.927349
H   79.474083   29.183781    0.972044
H   11.786769    2.772444   74.197998
H   16.427956   55.754089   62.037823
H   65.609802   43.704952   56.245312
H   60.054455   63.012688   81.596481
H   47.055500   35.520729   11.387518
H    9.132291    1.466806   99.971970
H   62.883667   54.046875   80.965759
H   54.653370   81.524902   81.528107
H   40.270565   22.688360   34.928890
H   68.275551   31.474451   37.202530
H   13.880803   22.265427   68.161011
H   58.274368   24.497515   10.522170
H   13.136960   62.180191   61.913704
H   73.677246   96.418587   52.974373
H   23.694237   34.162914   50.948658
H   95.037704   27.939316   36.689281
H   29.713055    9.923918   89.603821
H   78.008606    6.478174   35.970116
H   43.710182   62.810055   57.676144
H   39.044765   74.403458   88.426285
H   70.351128   72.842300   75.888535
H   68.137909   94.502441   95.893005
H    3.099464   48.044365   23.354862
H   34.688362   55.139088   89.878036
H    2.359256    9.268570   65.788071
H   73.785835   19.729044   68.304436
H   82.923111   55.216713   87.386581
H   80.121559   87.733719   40.068508
H   20.659752   30.192715   72.208138
H   62.366470   90.092087    7.475267
H   53.026894   25.351833   79.802299
H   86.441124   85.254890   78.104324
H    0.746800   36.822876   84.309547
H   33.824249    3.308388    0.838288
H   87.010048   70.232002   28.010859
H    4.562269   61.490021   67.354858
H   50.904682   57.887089   66.600052
H   51.212044   28.675320   78.794441
H   47.070873   86.858688   23.720041
H    5.677559   19.213140   59.432629
H   33.863102   66.364693   34.744148
H   82.458099   51.084030   21.584036
H   75.501480   10.557666   28.593637
H    9.933225   87.495399    5.863202
H   26.846069   95.995087   44.964367
H   10.966509   11.810558   74.841698
H    7.267216   32.587379   96.762383
