100
TIME:    1.399, STEP:  1399
H   22.713575   93.725967   97.865189
H   62.354515   80.597237   66.248741
H    3.802395   74.553856    6.913226
H   81.711426   75.011009   63.480999
H   82.640335   84.893547   27.771645
H    6.322296   99.692451   17.293104
H   79.648186   55.805889   99.856392
H    9.927658    9.633835   79.742775
H   19.237907   51.785278   12.024535
H   36.608055   36.470924   62.475647
H   70.123459   22.534061    4.991072
H    2.442528   93.815514   93.347130
H   54.271049   77.065865   86.079643
H   85.811562    0.763925   63.705853
H   97.516747   45.061497   83.524063
H   45.273911   89.369377   16.911606
H   11.589861   74.515091    0.731451
H   31.040321   26.667465   51.045700
H   67.050453   37.043587   37.066875
H   54.825005   76.104111   11.583017
H   81.257996   16.942162   19.273380
H   96.492973   45.946457    0.132067
H   67.065361   83.244240   92.322357
H   89.059242   53.460545    3.171637
H   79.547966   75.220863   46.884392
H   40.244198   85.923035   58.043640
H   41.441528   84.322769   27.727858
H   14.498459   21.740292   13.015529
H   41.590942   76.020294   91.041435
H   54.636929   56.214737   94.605492
H   71.134438   47.500046   98.707794
H   54.090855   13.860936   69.751640
H   68.902420   66.124763   23.829924
H   37.212837   45.512672   12.813887
H   45.997490   53.166512    9.918709
H   94.192017   94.382217   15.830478
H   13.981660   53.302101   18.700872
H    6.169125   33.348469   21.165394
H   87.826553   50.643471    8.038856
H   31.423597   81.213799   48.104977
H   39.634682    4.186342   75.304367
H    5.887047   74.646751   68.527496
H   23.291243   71.889328    2.525109
H   90.024132   36.217270   17.521173
H   35.302826   76.692307   75.826248
H   60.038471   89.600563   88.852119
H   50.852222    1.207727   39.577583
H   56.314129    9.787420   55.140118
H    5.926390   16.584557   88.667374
H   55.231297   52.043072   85.816978
H   43.437885   34.579506   68.167694
H   73.121834   33.922039   82.220291
H   37.900124   30.120605   21.617496
H   44.293934   84.379875   93.551285
H   29.385506   81.149078   12.277618
H   95.316696   11.061665   45.001541
H   84.942184   49.179527   89.043907
H   21.885162   44.769630   77.520218
H    0.614016   97.879074    4.080944
H   66.697830   35.319889   23.818687
H   47.950970   13.512685    5.319448
H   49.257904   14.923439   32.054413
H   69.127228   11.751881   37.581398
H   39.106117   49.404701   89.157036
H   87.850929   49.108768   25.846998
H   15.402340   72.724648   28.905149
H   75.324051   96.730713   34.606823
H   83.727180   97.546799   33.082890
H   26.627907   49.263107   72.490578
H   58.725189   18.508356   98.787231
H   77.607445    0.212320   45.368626
H   58.612270    5.095068   59.050926
H   15.774258   49.105000   25.876034
H   99.399376   60.849457   20.061867
H   29.623684   30.634310    7.451266
H   58.734882   97.235008    1.795328
H   93.974907    5.290716   15.788820
H   97.707886   59.244766   91.701019
H   28.610361   49.404148   33.288246
H   30.916031   32.761147    0.396182
H   38.259327   43.754955   63.603527
H   46.291752   53.364090   69.793900
H    6.316888   30.606672   63.147709
H   46.409252   31.875834   35.646797
H   84.209427   61.377289   12.135017
H   19.092060   60.444447   38.934166
H   60.590767    1.634223   90.252731
H   78.476303   93.287430   81.200462
H   84.715279   16.278307   16.753750
H   42.648178   51.718040   74.227196
H   81.275368   48.972919   63.006054
H   81.798790    0.724676   60.176987
H   75.046669   69.548264   27.145681
H   82.446571   98.091896   21.146442
H   32.405445   24.415543   48.233604
H    9.473297   40.485527   95.188583
H   51.556137   47.966122   56.731400
H   12.001798   28.149323   33.652687
H   42.066795   42.880833   27.863499
H   26.124039   42.768940   62.942207
