100
TIME:    2.837, STEP:  2837
H   25.467319   61.853966   96.548660
H   22.353996   58.563782   56.957081
H   28.520247   78.009369   90.036186
H   81.952789   15.765730   84.657776
H   69.760300    0.155578   88.782532
H   84.027229   98.134560   59.704281
H    4.283975   52.906410   12.310035
H   96.903687   34.038395   47.710583
H   83.889061   13.527508   21.507607
H   97.314156   57.118477   18.782969
H   36.364197   80.395477   66.474380
H   47.561485   65.894836   90.988686
H   62.799377   90.064804   43.154091
H   14.609376   96.331429   73.137718
H   15.008854   16.615099   14.399787
H   87.454330   63.594696   97.545265
H   95.972389   69.615067   31.651651
H   61.770287   56.737358    1.189770
H   89.453377   97.367432   12.827433
H   16.086159   45.567280    9.488733
H   95.925125   73.785553   80.241043
H   34.366302   47.850143   77.681534
H   47.865990   71.549080   51.180847
H   55.453476   70.707062   96.372734
H   28.116009   61.172058   57.493416
H   33.650585   43.075397   23.259729
H   17.440762   24.545824   56.263607
H   93.164360   88.861290   60.550129
H   72.858490    6.487066   23.065413
H    9.776988   20.624588    8.922218
H   27.708307   76.454330   84.924538
H   44.887032   74.126869   36.628746
H   70.192963   60.913780   53.376320
H   97.970619   13.728548   52.232361
H   10.250850   44.464752   97.483009
H   19.220535    7.345506   10.887647
H   51.903740    0.637744   32.009701
H   46.731926    7.028924   22.641033
H   25.321648   19.603308   69.385895
H   95.979980   46.593117   61.244579
H   41.362545   53.526226    9.184739
H   76.647758   39.184731   36.085266
H   35.677578   80.512589    6.393549
H   98.198074   60.320709   58.120049
H   10.567244   19.958454   98.880226
H   41.486393   17.028217   94.688728
H   63.898632   79.123138   52.692780
H   56.390926   24.592878   44.115395
H   47.956627   97.489922   31.304434
H   85.382988   73.925377   85.241119
H   43.328175   95.749100   83.329712
H   43.005039    0.486343   87.817863
H   67.729088   38.458618   38.100868
H   10.996738   60.922287   57.005219
H   14.906155    7.211179   24.478407
H   97.115952    9.550400   96.048630
H   76.104546    7.686393   25.809868
H   14.807496    8.967778   40.481888
H   14.025490   58.639065   93.685066
H   71.805115   45.849834   82.919563
H   38.661232   46.637562   93.201401
H   98.223930    1.535992   66.991074
H   66.665855   13.690893   38.929123
H   37.851028   57.227074   50.118069
H   44.928135   34.257320   59.766327
H   27.063667    1.237267   13.930483
H   59.950783   46.444210    4.032030
H   84.394676   79.787964    1.827606
H   98.296654   45.937599   82.301064
H   87.862366   90.835518   95.759216
H   31.945847    2.369826   28.117649
H   40.043480   57.370621   64.334900
H   22.014078   77.976158   89.005608
H   67.758812   69.849640   34.597206
H   98.955589   32.682240   16.461777
H   92.724953   89.397820    5.036058
H   24.535826   80.654922   41.223530
H   65.267746   65.217567   71.118011
H   97.558334   45.185566   49.333672
H   60.393532   54.445942   76.511154
H   66.399185   58.631725   49.549320
H   54.188148   62.755325   49.549538
H   97.296310   54.611053    0.110228
H   45.331051   54.927338    4.301365
H   14.190738   71.429428   72.737129
H   85.997314   13.261330   38.793194
H   56.631538   97.079903   58.822433
H    1.624876   78.157394   66.239967
H   14.558313   36.212044    4.989494
H   15.509319   92.552444   25.634201
H   40.124359   26.622036   93.373978
H   88.200348    8.865250   87.581184
H   67.311478   12.640263   38.393745
H   21.434299   85.318031   18.103386
H    7.539630   95.607819   81.278465
H   28.246185   83.701607   20.914444
H   37.414291   30.490002   74.031044
H   17.280958   40.393036   10.641901
H   73.565361   49.079487    7.408761
H   15.428642    5.832682   24.442015
