100
TIME:    7.497, STEP:  7497
H   10.330973   34.509834   92.282303
H   93.428391   11.114465   50.815800
H    8.637522   13.268264   35.337078
H   82.734955   23.774475   29.226189
H   28.019407   73.674950   62.430679
H   11.758399   93.086037   21.198818
H   60.050838   67.572189   76.728317
H   30.636879   37.187473   19.843765
H   69.337303   65.487396   28.177032
H   69.989998   24.030809    1.255724
H    2.902349   67.900665   17.600863
H   69.703247   99.476700   59.284294
H   65.690910    8.202707   80.075111
H   83.874855   81.968025   27.765049
H   71.664558    0.363842   90.371857
H    0.084347   56.013977   10.724241
H   21.243080   77.838577   55.869839
H   61.387737   30.034836   39.642120
H   62.029545   92.860626   58.331402
H   90.535721   46.604679   26.763193
H   19.394104    9.866730   53.759937
H   81.125031   54.036362   80.839493
H   85.646446   33.649605   17.852087
H   22.478189   26.514132   50.281883
H   61.448433   91.610016   91.906960
H   12.258343    5.091228   85.381645
H   15.603857   30.834978   48.721897
H   99.967247    6.374305   14.582799
H   74.185799   29.278212    2.785579
H   88.461914    5.288687   79.378777
H   11.108808   94.326431   16.240227
H   39.122341   45.375980    5.229208
H   98.434944   19.966059   73.185921
H   94.867363   86.667458   55.914322
H   94.375908   92.041954   81.175598
H   24.338932   72.625931   95.856483
H   98.859238   29.979891   99.199738
H   54.126205   21.752674   51.482971
H   28.621197   18.069876   17.797314
H   57.059120   10.338937   27.882502
H   22.884512   13.424344   18.970549
H   68.407600   71.002640   62.693546
H   75.806427    8.460161   42.989346
H    0.635921   38.479332   13.752667
H    6.346970   36.098614   97.648140
H   81.351982    5.909696   13.618647
H    0.305162   32.551155   97.427406
H   56.645199   72.586655   32.449398
H   84.174995   11.549122   45.416290
H   83.140869   44.842571   59.343094
H   42.986813   45.856812   32.455246
H   69.482727   68.073639   81.905334
H   64.384422   65.478882   67.456001
H    3.081589   84.883392   62.638138
H   43.872940   15.605884   64.116501
H    2.933264    4.647607   37.411224
H   71.528122   73.223595   69.014519
H   67.813644   68.888206   20.449690
H   81.545952   55.543278   35.941246
H   64.292671    4.031602   50.378075
H   32.617626   29.926823   29.870941
H   32.834755   58.161057   56.140076
H   83.032249   95.700836   19.378662
H   57.846355   82.602402   23.595135
H   29.890865   62.072475   93.731575
H   40.794769   69.575279   89.464996
H   86.069855    7.554126   29.017996
H   62.496681   46.299187   24.602554
H   30.551491   11.099716   90.033600
H   82.284935   25.199694   85.942581
H   83.968391   85.306046   72.219948
H   55.906979    2.669475    5.573904
H   18.172743   47.479580   69.528625
H   65.166634   74.933533   57.707123
H   23.608957   39.354122   69.729294
H    2.888449   88.060326   91.476601
H   47.670612   76.916573   23.701483
H   84.203018   60.511059   28.470728
H   21.022207   31.497669    1.322854
H   31.864529    0.621822   75.047981
H   57.581108    6.842263   28.068344
H    3.866035   93.089813   59.804302
H   92.076698   32.494419   43.919930
H   65.929771   53.693844   78.681755
H   87.288239   79.938255   21.002607
H   78.748642   84.431931   62.397644
H   67.862465   58.259499   81.029198
H   76.601402    5.156130   17.845695
H   11.267190   76.751442   66.875008
H    3.502745    0.827199   92.217056
H   30.830860   78.247337   91.784714
H   33.000980   59.325317   76.372597
H   66.025650   52.467609   98.759102
H   71.821632   68.007164   32.309917
H   26.974194   78.194351   88.360046
H   13.143096   99.684326   80.219017
H   67.525749   97.917374    6.029170
H   23.806376   57.409595   28.379759
H   51.573204   69.176064   17.084568
H    4.879688   86.248550   75.530960
