100
TIME:    8.428, STEP:  8428
H   47.370598   49.133263   91.429947
H   67.715652   61.566662    9.516974
H   24.640505   80.248245   24.408081
H   82.891220   85.416252   78.195992
H   19.676973   48.298618   37.186737
H   97.320801   92.077415   13.398734
H   11.259225   30.436846   49.533741
H   57.462112   17.731478   34.362885
H   46.451546   75.974792   69.575760
H   44.561378   37.398594   37.711006
H   16.302994    5.361547   27.922224
H   34.168243   46.142590   93.015236
H    6.324053   51.850090   87.555618
H   37.776604   79.098427   98.613670
H   82.972481   17.202316   45.597679
H   62.651703   74.585228   33.443634
H   46.377449   39.417103   40.622444
H   81.291183   84.732597    7.371089
H   76.532837   31.918362    7.382697
H   65.448044   26.836195   90.150063
H   64.147255   17.182934   28.494192
H   70.380913   55.272278    1.556243
H   73.216255   26.080622   91.214645
H   35.975021   37.651581   81.137772
H   28.150139   17.777336   98.782631
H    7.868553   77.646042   97.769501
H   35.322884   92.134598   67.195480
H   21.411814   49.830250   45.358025
H   94.429253   13.746262   58.775780
H   24.159767   82.246262   53.390228
H   47.751225   77.810341   42.582542
H   97.906487   19.656139   19.041862
H   64.015152   51.849556   57.057755
H   34.205765    1.346874   16.693129
H   71.206032   21.552116   37.818981
H    5.269563   45.547882   92.930061
H   88.153831   95.882576   72.558800
H   15.647943    4.713835   17.182312
H   89.322990   97.786949   27.576248
H   69.369247   23.181940    1.131645
H   59.257309   45.366386   40.904507
H   89.947876   74.653564   10.225518
H   83.818573   14.044868   10.237207
H   41.187366   54.108826    4.780688
H   25.589546   99.369255   77.317802
H   69.333763   23.663666   17.400976
H    7.583175   83.181099    6.366861
H   56.702023   82.175659   90.054451
H   11.390839   34.443039    8.276779
H    2.687495   59.012989   94.246452
H   42.922886   55.974617   42.271545
H   14.729357   81.683350   20.790760
H   83.690285   70.877136   13.386999
H   81.518005   69.697250    3.721385
H   69.744942   97.194061   72.029205
H    4.092823    3.668285    5.717789
H   30.550552   46.360176   57.560402
H   98.489929   80.966469   96.468163
H   54.974178   94.881035   64.469604
H    2.858705   75.592789   23.898216
H   91.344955   86.630249   57.281826
H   99.791710   49.495438   14.013817
H   46.237934   32.171906   55.537201
H   21.775055   87.673920   98.317001
H   66.846848   87.713654   80.431686
H   83.603645   23.292351   44.513493
H   11.374079   39.739910   73.965805
H   98.185989   99.543022   69.109741
H   76.953186   44.204002   31.643280
H    1.193059   71.959732   83.967957
H   54.403538   21.959366   61.054085
H   79.241608   71.757225   73.814255
H   57.469925    1.428814   45.657070
H   44.674175   16.012146    2.391033
H   68.456421   40.724995   40.318195
H   24.899668   47.729134   28.832247
H   32.225418   96.334961   40.214096
H   27.940332   99.638237   79.891296
H   65.664619   28.763027   11.712732
H   86.208641   49.906609   94.841576
H   75.807320   16.473886   83.712982
H   73.725876   99.127335   81.917244
H   50.964790   48.064121   32.583294
H   29.982655   33.361794   93.650139
H   41.957108   21.699093   30.752880
H   57.323879   18.627548   27.049255
H   30.041918   90.567894   25.422859
H   91.574455   30.656857    8.192764
H   30.590809   24.914480   59.260628
H   21.190130   62.527573   25.498186
H   68.931175   28.518642   11.446067
H    1.885553   29.345196   94.115807
H   25.704411   80.399406   70.754761
H   61.798317   24.489857   95.085930
H   10.875320   94.800156    9.753366
H   90.039810   62.919373   32.131935
H   93.627647   51.344292   52.486809
H   22.009325    3.478106    9.688303
H    7.222619   73.196342   39.104397
H   62.705280   62.354664   85.844131
