100
TIME:    9.002, STEP:  9002
H    8.553840   96.495491   90.904434
H   51.862686   92.668594   45.710300
H   34.507008   21.543667   17.670570
H   82.987564   61.768181   46.732895
H   14.533518   94.307251   21.624264
H   88.422119   91.455559   70.244873
H   81.174706   69.197197   94.421288
H   12.346848   67.388351   81.660194
H   32.341530   20.786755   33.443058
H   28.883146   45.640385   60.185432
H   62.910919   28.456207   72.630577
H   12.258743   74.914406   52.156624
H   69.721970   17.109322   30.513729
H    9.356614   77.329201   42.296749
H   89.944283   65.929817   17.995125
H   39.572937   24.381248   85.795959
H    0.219613   77.382561   92.875923
H   93.566666   56.801598   87.472733
H   85.475311   55.999981   37.621586
H   49.984425   14.646490   29.230585
H   30.085274   60.040619   12.914930
H   25.410852   56.034271   52.674820
H   65.552528   21.414507   74.792374
H   82.642578   44.518280   38.507313
H    7.621852   72.257462    3.020337
H    5.161068   60.724533   43.753910
H   85.826622   68.276321   78.581589
H   72.978394   76.622635   64.333336
H    6.910563   65.823845   31.641838
H   46.169212   68.039902   99.022247
H   70.342659   29.282795   97.169510
H   34.148975    3.798096   65.903847
H    4.444954    9.853489    8.768209
H   58.458176   48.743073   92.512154
H   56.920845   78.092293   72.742584
H   55.165821   90.507294   91.125801
H   43.207802   74.862068   17.787558
H   91.923180   94.210762   57.686203
H   65.096855   85.279747   71.951797
H   15.306017   69.446999   46.293587
H   20.028456   65.060211   54.427700
H   41.574432   76.904510   39.528858
H   88.758392   17.488544   51.695934
H    4.537287   63.747604   60.901066
H   75.798431   76.728416   26.437166
H   61.925262   34.610180   19.732939
H   12.070886   14.397593   11.879108
H   56.737057   88.087677   25.569889
H   28.167831   86.904762   85.380798
H   14.735968   67.751518   54.113720
H   42.883472    0.558063   48.323700
H   42.626629   28.419861   83.110664
H   95.593147   74.205383   80.051102
H   68.222534   60.332649   29.048908
H   24.042473   47.497467   76.907715
H    4.807739    3.064493   86.177460
H   66.938278   29.797768   12.152638
H   55.748230   26.759623   81.683739
H    0.247083   19.135347   20.401609
H   64.978249   19.711452    7.572289
H   27.553968   59.934872   12.529955
H   79.419334   44.152725   88.042992
H   85.206696   93.002342   16.176300
H   61.192318   90.800720   82.735550
H   89.627823   41.869312   33.886143
H   48.341743   94.757622   78.452858
H   65.321182   59.582394    1.677954
H   58.536057   32.372078   96.550262
H    5.559306    2.960021   95.642273
H   12.850936    0.792773   82.750519
H   36.172626   82.903419   54.169868
H   31.974707   52.698631   15.889152
H   20.044662   73.033745   30.938335
H   32.039974   79.682777   68.285378
H   96.107147   41.570194   83.839401
H   38.471031   84.516960   90.209061
H   84.356277   46.654964   50.395905
H   54.903843   62.107872   11.595763
H   93.192726   27.077007   18.118876
H   58.058678   18.637667   45.390831
H   87.044533   22.412180   18.020683
H   16.799244    2.852648   33.896889
H   87.270531   57.663486   87.247887
H   69.471275   82.479713   41.223392
H   14.008591   85.791245   75.110748
H   44.111614   39.712357   66.909393
H   68.378075   48.833427   52.793312
H    0.805901   84.725868    2.241225
H   42.502689   92.955742   54.566048
H   70.441879   38.910156   46.015770
H   92.421593   59.510754   23.567894
H   44.355740   72.515930    5.053366
H   62.499058   97.618706   15.143062
H   17.274008   59.313831   33.788555
H    0.950074   43.385738   22.942064
H   37.449905   40.252258    2.483761
H   48.065697   84.285179   19.475021
H   20.901369   31.879795   98.163902
H   79.878593   75.675011   91.025200
H   98.361160   47.627171   30.548786
