100
TIME:    3.204, STEP:  3204
H    0.649294   28.198112   96.212662
H   12.144976   78.461258   80.107376
H   34.828621    4.413043   85.729805
H   82.014389    0.644403   64.542664
H   66.473114   29.572231   78.831375
H   78.337654   97.736961   96.048454
H   85.048454   77.687553   41.009911
H   68.058212   65.787613   14.012772
H   74.867500   78.241806   98.405922
H   87.284599   62.388054   33.155304
H    2.226755   95.162613   31.124304
H   33.553146   84.290756   64.864799
H   39.455879   67.860901    6.677844
H   96.438011   95.200233    1.064892
H   19.473434   83.833298   96.758278
H   72.698395   31.495636   67.081398
H   66.460518   93.890961   65.061111
H   69.611046   38.890236   88.466492
H   95.170952   12.763911   32.161350
H    6.199402   37.774914   34.475822
H   74.146820   37.249260   70.278687
H   69.550949   48.337341   46.428070
H   42.966011   68.564293   40.680893
H   21.355225   75.108643   69.117653
H   14.991012   32.066185   60.202065
H   31.967764   32.141445   88.860298
H   85.794510    9.289783   63.546375
H   62.196659    5.991577   72.680473
H   80.838455   39.783646    5.718042
H   23.848637   11.541083   38.096985
H   42.153027    9.364797   55.888664
H   68.059731   63.985321    2.653742
H   96.042450   34.061897   86.438576
H   13.477569   80.095314   36.770828
H    1.127573   16.722473   19.830040
H   51.129757   36.175793    9.626252
H   87.104225   87.197739   60.927975
H   31.564392    0.312082   48.538120
H    9.829595   11.607943   33.820450
H   61.411541   12.235196   90.118324
H   16.281134   66.118240   17.830549
H   43.663902   55.657059   53.327591
H   38.838764   82.713379   32.902203
H   74.762177   66.471161   94.004234
H   78.731850    5.479208   30.286234
H   36.751614   24.028187   96.178322
H   66.765915   99.081451   56.217964
H   56.410526   28.371462   66.823296
H   58.683380   67.093254   16.664698
H   93.077354   79.508553   59.571316
H   43.300175   60.318054   87.199295
H   60.840961   66.432861   63.726734
H   75.339455   40.586609   16.785561
H    2.498775   54.933113   73.200348
H   85.685745   39.374641   27.598993
H   97.575150    9.164480   83.555084
H   99.372444   97.096397   60.714516
H   87.479973   74.309265   31.028984
H   42.968964   74.145401   65.511589
H   47.587120   74.058716   72.481209
H   61.811531   29.571636   64.585526
H   85.198387   98.119705   50.384850
H   91.579826   88.647636   13.762589
H   63.053719   59.223465   40.152912
H   59.496471    4.945314   93.943321
H    4.518468   82.992561   35.629288
H   30.506039   59.130955   21.751673
H   59.043587    0.776716   19.372328
H   16.588219   19.567314   59.284588
H   95.299133    9.293949   94.986420
H   20.290897   77.399452   23.714668
H    9.783128   45.190674   91.203583
H   98.084183   59.821682   79.597649
H   59.682148   46.624443   12.785301
H   16.649721   33.205837   44.283237
H    1.399686   12.918600   80.340546
H   57.858166   48.845726   47.713902
H   82.510071   41.219013   91.384323
H   15.157130   44.107571   53.430054
H   42.395210   34.456829   44.893692
H   73.578354   62.428509   71.484421
H   81.724228   65.152115   18.861071
H   20.515821   60.737427   35.064976
H   70.579269   86.332001   70.780212
H   96.320541   48.473232   37.160484
H   77.552551   26.741871   64.278687
H   81.142632   70.396019   76.322357
H    7.531450   48.774323   62.421944
H   22.175549   15.778837    1.986858
H   83.062073   77.454910   38.752823
H   55.143494   46.437931    1.124364
H   15.355812   36.464546   94.575554
H   90.837311   23.652601   66.774681
H   56.907345    7.578496   42.847664
H    1.193796   62.735851   89.712029
H   58.558853   69.208870    1.958008
H    8.284173   51.551510   52.924736
H   18.627752   43.517822    4.769627
H   56.082237   50.661480   76.668633
H   38.223362   96.415047   89.088089
