100
TIME:    1.969, STEP:  1969
H   84.167145   41.453934   97.343338
H   46.498955   11.500437    2.204191
H   13.600172   15.561812    0.221414
H   81.807098   51.527733   32.235195
H   77.534897   30.581547   12.317368
H   97.483772   99.074928   73.742973
H   49.774311   94.293297   44.431221
H   65.126778   58.944508   27.406815
H    5.226219   96.981964   76.146217
H   21.032347   44.655281   84.793755
H   17.103439   45.469395   50.085011
H   80.689590   22.386232   52.773247
H   18.014641   42.580238   29.426620
H   57.588142   99.006844    7.081051
H    4.449852   94.148499   56.125656
H   22.355896   39.513252   69.597427
H   65.762802   12.210121   52.626396
H   43.221184   98.947990   31.284878
H   75.930611   60.957390   67.095474
H   39.469551   63.997181   50.391304
H   47.433380   60.198071    3.802685
H   51.148441   46.698792   51.598839
H   59.455040   78.608467   76.014526
H   36.100105   60.296787   60.840263
H   59.161003   30.014481   51.089638
H   37.630596   68.936798    4.618268
H   92.289635   60.630131   39.038967
H   66.402451   48.345974   31.856508
H   53.984894   27.734838   64.096550
H   76.493767   42.107376   39.918056
H   93.556618   98.615311   53.603512
H   90.081146   98.112892   16.983849
H    9.050856   24.420601   75.180023
H   61.296242   93.275742   88.800781
H   31.829220   10.078898   44.626122
H   43.751812   39.159321   13.870999
H   68.650940   32.428078   63.614811
H   82.608437   22.915806   61.387028
H   62.203384   38.475655   53.408409
H   77.735161   27.851797   92.950882
H    0.682884   23.744761   88.733322
H   54.658691    0.226161   95.307129
H   28.200987   75.307449   43.696045
H   53.625053   45.771484   73.251755
H   85.859200   54.202442   24.602983
H   52.684727    0.472447   91.165657
H   56.870899   31.957369   44.448189
H   56.344570   15.656065   90.408516
H   22.586538   69.375938   65.932083
H   67.184868   60.718838   45.949566
H   43.394398   79.549110   74.177673
H    0.823343   81.030930   44.801373
H   49.724388   33.425659   88.513329
H   31.095463   75.082237   18.702902
H   84.008133   31.117704   17.114271
H   96.029892   10.462624   25.597397
H   21.078279   32.732536   43.255791
H   79.441254   90.939575   62.838821
H   45.567116   21.963781   60.323196
H   29.085140   79.132095    7.607093
H   83.906479   87.004341   60.875881
H   29.027817    9.616871    6.262322
H    7.788290   72.882164   98.476974
H   78.247681   52.505363   73.684166
H   10.474299    3.582768   78.930771
H   80.386543   44.388161   62.607998
H   29.592428   16.436785   62.125744
H   44.353554   30.146973   60.332188
H   55.038322    8.306534   36.740494
H   70.273499   47.178673   97.586975
H   59.507927   61.429817   38.532383
H   11.614434   86.177689    0.782140
H   78.608963   20.912022   11.259869
H   86.857567   24.776972   86.185036
H   57.103653   31.445353   50.661724
H   72.209023   33.766777   63.439510
H   45.727654   55.887939   25.871683
H   24.487530   21.972174   23.180058
H   55.933586   47.734226   39.646126
H    2.961825    1.717490   51.290047
H   49.413883   49.651867   97.671669
H   89.059204   57.086624   22.131094
H   42.381474   40.121429   17.437260
H   85.619576   80.651466   83.583496
H   56.455673   25.721848   56.879959
H    5.971951   81.380089   78.516533
H   98.659767   60.190582   17.432966
H   87.652176   47.651596   75.272804
H   96.543892   84.541695   12.090622
H   92.252182   28.265205   94.605461
H    4.602185   79.751282   75.043411
H   23.973433   43.592953   71.038643
H   11.619030   86.630173   71.242294
H   37.539303   32.666691   59.577003
H   22.549080   73.359161   61.332054
H   56.552917   17.977728   65.747513
H    6.312694   80.677452   23.950485
H   14.094636   33.002533   24.531567
H   14.914495   45.337879   80.116623
H   61.522903   28.127258    8.042734
