200
TIME:    0.884, STEP:   884
H   29.259794   60.337696   26.351578
H   33.703918   42.279823   16.041473
H    4.639987   97.325928   77.068657
H   39.550400   84.500984   27.659256
H    8.372630    0.051332   44.399330
H   68.668152   35.335823   46.487968
H   12.689635   54.847191   62.116482
H   17.320307   16.694382    2.213367
H   13.581400   77.851532   32.009045
H   88.191177   65.877007   70.670540
H   34.640331    8.351101   13.312675
H   33.440826   59.212128   43.427773
H   26.980358    8.381716   34.897270
H   73.965248   55.924007   73.298393
H   88.529800   76.902138   41.394043
H   10.529190   99.431992   40.430565
H   14.505600   37.879440   84.168076
H   21.270302   14.126767   32.055111
H   86.452454    6.387168   51.964104
H   92.105110   70.860680   12.506005
H   65.813744    8.905907   96.336243
H   75.691933   73.430153   45.757462
H   75.720390   57.859055   33.683784
H   22.248863   93.930611   89.566704
H   31.237930   38.604668   22.430706
H   18.127996   90.916977   85.686745
H   11.367309   71.718819   74.975113
H    9.290383   96.695808    2.425808
H   38.192631   36.955025   34.567383
H   63.947762   38.016705   76.348862
H   12.520699   78.354652   16.982174
H   20.215130   78.600082    9.458925
H   11.562782   22.842669   81.045395
H   75.112526   64.280525   49.546738
H   17.082998   63.190491   29.319826
H   12.020992   35.239029   86.857140
H    4.748230   60.529190   90.789650
H    1.060300   61.413960   86.212524
H   29.235687   23.340363   58.746620
H   83.906693   37.040203   38.540131
H   80.695930   75.139664   22.900047
H   45.393875   29.602381   20.734756
H   65.106400   72.987892   74.241463
H   35.846573   94.512154   41.780277
H   50.781174   95.943558   67.603966
H   31.997152   97.078590   49.691830
H   92.110077   94.660583   10.298293
H   74.437386   65.540779   24.496048
H   11.986136    4.313553   61.630642
H   39.071423   20.707739   78.467682
H   62.888474   62.344902    2.346700
H   96.520622   46.782452   77.387489
H   69.547325   76.005730   16.342857
H   12.821711   95.773972   91.239937
H   49.939743   62.062576   69.945747
H   97.050468   56.483749   99.736237
H    3.592625   19.182472   42.746449
H   74.444565   73.550308   93.679192
H   14.592119   86.918015   22.702091
H   28.208530   92.372963   55.089233
H   48.333809    2.811807   23.420345
H    1.511048   17.950472   54.003426
H   89.189346   38.546783   63.158077
H   39.730156   66.071129   18.046272
H   81.700760   85.679718   44.264393
H   13.476974   41.580559   44.439102
H   62.119484    9.577567   99.140419
H   93.735039   92.914101    0.021646
H   39.429260   14.555984   53.828590
H   41.529858   52.854488   50.948200
H   58.182648   87.730652   90.507477
H   14.041019    6.894493   40.256847
H   97.933243   36.796703   77.931152
H   28.846273   94.809227   79.321449
H   86.986710   11.296439   37.331863
H   69.591621   96.340889   58.669205
H   92.705597   53.924789   63.035999
H    2.702535   17.696829   25.945992
H   16.430262   58.380516   20.663160
H   58.570889   87.075302   63.720367
H   70.700951   19.217794   91.572540
H   54.954205   57.008045   67.948418
H    8.487159   20.730440   71.437096
H    3.673329   82.918129   14.840749
H   15.975250    6.133920   39.531631
H   42.810181   63.241791   14.376875
H   64.718513    4.126062    3.247767
H   69.975960   94.575775   35.732277
H   85.397659   73.624649   79.489990
H   20.218529   14.913919   47.780483
H   14.247297   40.452229   77.890015
H   79.569557   94.185791   12.419804
H   77.853653    9.598969   77.388367
H   31.149733   71.296776   86.787743
H   41.442589   48.214867   94.761650
H   42.602516   42.107811   98.782234
H   88.041496   92.003624   26.064690
H   95.931389   39.605534   56.086700
H   22.425316   63.326828   55.163490
H   78.401909    8.391523   27.407633
H   38.599270   98.232300   99.264870
H   14.518765   86.399704   62.312263
H   36.528915   13.634204   39.501812
H   52.820457   69.128510   15.737025
H   24.485048   19.009521   45.966732
H   12.919085   95.242996   13.739421
H   89.425179   36.932865   51.866405
H   60.956135   59.000710   93.839607
H   89.162865   31.960548   30.273273
H   25.054308   19.081278    8.689165
H   55.667580   90.470497    1.248952
H   11.851994   79.539734   97.846764
H   45.908844   87.747833   79.927467
H   61.042656    5.513559   58.347763
H   42.359352    8.785300    4.191901
H   87.756783   86.958870    7.987144
H    6.096774   17.510977   91.687668
H   37.503750   58.694828   21.105583
H   43.319099   81.892105   51.712055
H   87.777840   59.528133   73.367447
H   47.276009   26.038944   66.417076
H   90.502686   12.224140   67.131104
H   47.762520   94.661331   43.134121
H   94.589355   44.144753   89.663200
H   57.646294   93.007530   71.513847
H   71.315552   79.972565   13.097206
H   79.379005   52.196884   46.183487
H   61.342155   92.620872   40.441631
H    0.392934   29.172375   70.214149
H   98.959579   21.096939   77.473076
H   74.605385   62.191315   28.022213
H   56.981041   92.438705   24.514088
H   90.334846   13.926493    2.166368
H   69.342590   29.514385   57.632885
H   36.240086   89.725555   26.823898
H   45.205643    0.800336   74.193962
H   69.958908   88.205574   87.398140
H   96.711449   44.113148   73.022865
H   63.146301   53.339767   71.397774
H   43.796791   78.204185   77.563141
H   82.500259   44.130234   35.712952
H   27.591446   60.578163   61.259571
H   34.303185   68.613441   77.662415
H   28.203621    3.215921   88.796181
H   70.572968   48.408829   70.127075
H   69.536980   73.070480   99.002586
H   59.962578   93.957542   42.670734
H   25.067635   49.446556   65.130150
H   82.401581   37.904152   91.542389
H   29.990906   95.705772   65.897049
H   53.521774   72.247025   46.482456
H   60.896667   89.289635   27.970825
H    6.093100    7.758358   80.858017
H   26.933571   15.924971   60.037632
H   39.149570   70.887527   72.403404
H   82.619865   45.125736   73.875183
H   66.052353   80.197495   88.381271
H   55.202057   26.327164   24.811741
H   82.906914   99.307602   78.721413
H   56.459538   30.667265    2.954891
H   60.281860   58.245903   66.292931
H   13.366716   19.718922   29.964890
H   92.940361    6.491621   36.964275
H   34.913666   39.098438   43.646652
H   52.787956   43.940399   16.152285
H   23.009224   43.948254   58.781422
H   63.810448   87.150703   59.048771
H   24.194790   60.233208   74.642960
H    2.824189   26.075903   35.336258
H   55.862038    5.599816   83.151276
H   67.062012   13.292472   35.922028
H   23.914934   41.526711   59.435730
H   50.115952   49.781101   72.303665
H   63.295601   59.135139   89.180710
H   41.505859   90.192001   68.950569
H   20.786858   51.144035   23.916489
H   28.801945   73.039886   13.846512
H    7.437695    9.815025   73.114944
H   59.131359    6.408254   61.603489
H   55.666588   61.363243   95.469749
H   69.660217    8.267846   26.746357
H   32.217262   30.892178   93.126450
H   35.982204   89.487000   18.826035
H   65.505470   26.411968    0.882342
H   93.851059   60.402100   75.743637
H   12.742207   41.657913   87.177345
H   53.776428   93.493813   13.534666
H   59.481812   94.503365   48.061180
H   87.967812   64.045204   73.903580
H   61.324493   54.770107   73.839493
H   78.583923    9.717690   74.702583
H   42.373543    2.430585   16.421583
H   18.405205   32.845085   72.559914
H   23.852930   89.232758   46.291843
H   62.794312   25.490524   19.709694
H   76.900406   11.963696   20.743259
H   13.742019    3.119953   25.203352
H   10.193197   84.606956   28.804588
H    3.325435   13.413858   49.215126
H    1.290845   13.174118   88.801620
