100
TIME:    9.009, STEP:  9009
H    8.080464   95.853554   90.898026
H   51.669357   93.047882   46.151699
H   34.627331   22.047256   17.588406
H   82.988739   61.479790   46.349174
H   14.470793   94.868332   21.434486
H   88.313599   91.447975   70.938080
H   80.807808   69.669838   94.968697
H   11.796661   67.993973   81.017509
H   32.169456   20.113708   33.002407
H   28.691927   45.740894   60.459511
H   62.259796   28.737843   71.956276
H   11.991554   75.265282   51.658348
H   69.275604   16.685654   29.818092
H    9.010024   77.307625   42.829472
H   90.029305   65.304543   17.658508
H   39.291489   23.769005   85.214905
H   99.656715   77.845589   93.513161
H   93.716415   56.460976   87.230057
H   85.584366   56.293659   37.990353
H   49.795849   14.497835   29.707178
H   29.669884   59.343727   12.724939
H   26.081949   56.043564   52.078705
H   65.459068   21.357603   74.592102
H   81.992203   44.602020   37.987408
H    7.371499   71.702362    3.072011
H    5.128050   60.518173   43.095150
H   85.223030   67.985367   78.720444
H   72.387726   76.949371   64.564690
H    7.062777   66.458946   31.310963
H   46.437630   67.866653   99.578735
H   70.618126   29.910500   96.615692
H   34.590961    3.604707   65.255821
H    4.938036    9.341354    9.398824
H   58.753937   48.101562   92.217247
H   56.746635   77.562294   73.168442
H   55.774326   91.055557   91.103798
H   43.879166   74.605721   18.339132
H   91.633827   94.082695   58.180153
H   64.801414   85.127220   71.273438
H   14.646696   68.791710   46.844360
H   19.550074   65.300430   54.592617
H   40.984512   76.931961   39.886196
H   88.818634   17.530548   52.201527
H    4.090341   63.865150   61.585461
H   75.191208   76.452309   27.036192
H   61.834953   34.743694   19.761377
H   12.125613   14.778296   11.946333
H   56.737484   88.159775   26.003010
H   28.372429   86.324989   85.101593
H   14.882900   67.858116   53.624256
H   42.882992   99.882240   48.397507
H   42.966824   27.770313   82.651161
H   95.738304   74.245972   79.644577
H   68.060394   60.218414   29.357780
H   23.485104   48.110939   76.967209
H    4.816458    3.057130   85.939163
H   67.382080   29.595787   12.818408
H   55.226990   26.098539   81.503441
H    0.799169   19.431135   19.864214
H   64.516289   20.249516    7.373192
H   27.995554   59.609364   11.984188
H   79.170891   44.087570   87.726295
H   85.681900   92.524681   15.696289
H   61.673023   90.838852   82.545532
H   89.905640   41.310207   34.538013
H   47.911720   94.409630   78.866753
H   64.759567   59.824375    2.015929
H   58.052521   32.772408   96.884903
H    5.908199    2.457049   95.203278
H   12.993102    1.144354   82.735672
H   35.950298   82.427147   54.085915
H   31.398272   52.466209   16.402245
H   19.588257   72.687462   30.758839
H   31.885899   79.239723   67.869453
H   96.444351   41.580502   84.370148
H   38.636536   84.965569   89.738022
H   84.992020   46.049076   50.520073
H   55.232662   61.650185   11.982368
H   93.528435   27.056446   18.197008
H   57.715385   18.256323   44.787773
H   87.181572   22.484598   18.439064
H   17.324516    2.898089   33.311295
H   87.713264   57.780552   87.914497
H   69.952888   83.078712   40.584072
H   13.667755   85.353317   74.432175
H   43.950489   39.969505   67.395493
H   68.845589   48.324471   53.127098
H    0.918472   84.165749    2.168650
H   42.647953   92.565987   54.508797
H   69.823013   38.622139   46.265976
H   92.708061   59.888706   23.715721
H   44.873669   73.042404    5.186727
H   62.947773   97.828697   15.684382
H   17.950525   59.738514   34.260555
H    0.829035   42.758701   23.102896
H   38.028076   39.975830    2.122190
H   47.510063   84.686897   19.072422
H   20.887857   32.226139   98.023338
H   79.545128   75.705238   90.438911
H   98.795990   47.447567   29.874432
