100
TIME:    8.419, STEP:  8419
H   47.979240   49.958611   91.438187
H   67.964218   61.078938    8.949496
H   24.485804   79.600739   24.513721
H   82.889709   85.787041   78.689278
H   19.757620   47.577229   37.430771
H   97.460327   92.087166   12.507434
H   11.730899   29.829096   48.829929
H   58.169495   16.952890   35.189262
H   46.672783   76.840103   70.142242
H   44.807198   37.269367   37.358620
H   17.140152    4.999418   28.789148
H   34.511772   45.691463   93.655876
H    6.897960   52.394806   88.450043
H   38.222237   79.126167   97.928810
H   82.863167   18.006241   46.030472
H   63.013565   75.372398   34.190704
H   47.101173   38.821850   39.803139
H   81.098785   85.170540    7.683058
H   76.392624   31.540775    6.908560
H   65.690567   27.027323   89.537300
H   64.681328   18.078938   28.738466
H   69.518074   55.260330    2.322671
H   73.336418   26.153784   91.472137
H   36.811287   37.543915   81.806152
H   28.472004   18.491104   98.716164
H    7.911005   77.911362   98.616409
H   36.098999   92.508682   67.016953
H   22.171209   49.410160   45.060501
H   94.233559   12.929720   59.201225
H   23.814693   82.469009   52.674744
H   47.396984   77.003258   43.294594
H   97.338219   19.904774   19.875038
H   63.381176   52.508049   56.246964
H   33.825500    2.171661   17.072260
H   71.430016   22.233543   37.271381
H    4.487234   44.842903   92.958351
H   87.290581   96.212166   71.849632
H   16.019917    4.878544   16.547234
H   89.702843   97.983055   28.448391
H   70.216980   24.024488    0.423542
H   59.872406   45.057602   40.692471
H   90.706345   74.618271    9.766049
H   83.741119   13.990881    9.587143
H   41.762020   53.957695    3.900751
H   26.370228   99.724251   76.547661
H   69.449944   23.492039   17.364412
H    7.512803   82.691658    6.280438
H   56.701473   82.082962   89.497581
H   11.127785   35.188393    8.635809
H    2.498581   58.876003   94.875694
H   42.923504   56.843498   42.176651
H   14.291946   82.518448   21.381584
H   83.503654   70.824951   13.909708
H   81.726471   69.844055    3.324263
H   70.461525   96.405380   71.952713
H    4.081614    3.677752    6.024170
H   29.980019   46.619865   56.704430
H   99.160095   81.816399   96.699974
H   54.264324   94.500771   65.160507
H    3.452601   74.901062   24.154198
H   90.777237   87.048828   57.983509
H    0.111140   49.579208   14.421049
H   45.626888   32.786041   56.154358
H   21.157040   87.624893   98.561310
H   66.489655   88.432434   79.593567
H   84.156532   23.739769   43.981342
H   12.096189   39.428791   73.531296
H   98.807678   99.028313   68.679489
H   76.504669   44.850685   32.207771
H    1.010270   71.507645   83.987045
H   54.689388   22.571751   61.162025
H   79.982773   72.056053   73.154526
H   58.056732    1.873994   45.887852
H   44.872272   16.581753    2.925766
H   68.022873   40.711742   39.635807
H   24.686876   47.152283   29.437834
H   31.408009   97.113892   40.054451
H   27.517530    0.226691   79.394165
H   65.232994   28.789463   11.612293
H   86.650017   50.396873   95.616936
H   75.631126   16.380777   83.175064
H   73.050491   99.068970   82.670219
H   50.395493   47.913609   31.726154
H   29.363472   32.591652   94.472191
H   42.395325   22.262074   31.625298
H   57.531040   18.296963   26.424271
H   29.440828   91.222267   24.993706
H   91.429710   31.377045    8.286079
H   30.404007   25.415560   59.334236
H   21.985849   62.897881   25.176458
H   68.562859   28.032703   11.256003
H    1.219644   28.668335   93.944283
H   25.127491   80.129417   70.058777
H   60.928543   23.943836   94.479073
H   11.030949   95.606277    9.546566
H   89.296448   63.274780   32.596794
H   94.342033   50.827797   53.004402
H   22.026697    3.032787    9.868994
H    7.651351   73.157478   39.858265
H   62.146282   62.585583   86.711090
