100
TIME:    8.188, STEP:  8188
H   63.601067   71.142540   91.649673
H   74.344070   48.560680   94.384476
H   20.515139   62.981400   27.225159
H   82.850937   95.303947   91.350288
H   21.827547   29.061558   43.694305
H    1.041906   92.337425   89.631111
H   23.837482   14.230182   30.765430
H   76.325638   96.968590   56.399628
H   52.351204   99.049744   84.681961
H   51.116554   33.952549   28.313675
H   38.627213   95.704727   51.039452
H   43.329010   34.112560   10.098534
H   21.628273   66.376144   11.406439
H   49.660149   79.838173   80.350731
H   80.057442   38.640305   57.138817
H   72.301361   95.576439   53.365509
H   65.676765   23.543690   18.774298
H   76.160568   96.411064   15.690046
H   72.793823   21.849392   94.738403
H   71.915329   31.932936   73.809731
H   78.389198   41.076366   35.007748
H   47.371876   54.953674   21.994415
H   76.420601   28.031610   98.081100
H   58.275436   34.780487   98.961258
H   36.733711   36.811150   97.010170
H    9.000301   84.721237   20.354820
H   56.019295    2.110443   62.434139
H   41.661926   38.627857   37.424065
H   89.210747   91.971664   70.120995
H   14.957750   88.186203   34.310638
H   38.304813   56.288780   61.570580
H   82.752678   26.286388   41.259880
H   47.109028   69.409370   35.436661
H   24.064667   23.341255   26.803297
H   77.178932   39.723503   23.216322
H   84.406754   26.748701   93.684456
H   65.133812    4.672079   53.647671
H   25.567665    9.106077    0.246783
H   99.452385    3.015932   50.834129
H   91.975449   45.650452   82.249756
H   75.659897   37.132133   35.250210
H   10.173932   73.712402   97.972984
H   81.753143   12.605202   92.901588
H   56.511463   50.078674   81.314240
H   46.407089    8.837376   56.780052
H   72.431908   19.086945   16.425940
H    5.706892   70.129341    4.062083
H   56.687374   79.703735   75.204597
H    4.375950   54.319138   17.850819
H   97.649170   55.360035   11.027032
H   42.939365   79.144783   39.741028
H    3.064984    3.952822   36.545807
H   78.713478   69.485535   27.325903
H   87.077087   73.612045   93.130875
H   88.853828   76.162567   69.989410
H    3.793903    3.920742   13.887955
H   15.336299   53.285225   34.734474
H   16.360590    3.631382    2.650044
H   36.044735   84.740654   82.893677
H   18.695877   57.146061   30.724388
H   76.205795   97.792358   75.994545
H    8.309822   51.729324   24.872971
H   29.943493   48.548859   71.994720
H    5.294610   86.366547    4.833075
H   57.320419    6.881720   58.081833
H   98.347298   35.223503   30.322819
H   30.630365   31.443340   62.378887
H   14.764759   85.817436   57.636353
H   64.992737   61.448875   46.696381
H   96.318764   59.904690   84.476990
H   62.026218   38.289978   63.932503
H   99.006012   79.725975   56.222294
H   73.118118   13.300333   51.811245
H   49.956768   31.201660   16.650461
H   56.895142   40.371601   22.121176
H   19.225229   32.346443   44.980499
H   10.427752   17.107872   35.956894
H   16.665613   15.330379   66.634460
H   54.156174   29.467983    9.034357
H   97.978661   62.980339   15.517567
H   71.108833   13.990975   69.368500
H   55.716461   97.570938    1.996479
H   35.783516   44.050449    9.726239
H   13.471120   12.823898   15.570467
H   53.642899   36.711910   54.018211
H   62.848171    9.811934   10.382842
H   14.012864    8.017971   13.978767
H   87.714592   49.862724   10.681168
H   25.609425   38.277031   61.223518
H   42.409756   72.400894   16.918779
H   59.109394   15.560252    6.377634
H   84.127983   11.295454   89.541832
H   10.320059   73.199699   52.195190
H   38.604347    9.929311   78.903069
H   15.025406   16.298042    4.238688
H   70.216812   72.396912   44.528175
H   12.677629   37.571098   66.289299
H   22.472582   91.602196   14.506723
H   18.655388   72.159966   59.207546
H   47.798664   68.513840    8.963584
