100
TIME:    0.214, STEP:   214
H    2.850873    2.396495   98.950089
H   95.317390   16.347481   91.499603
H   83.441254   89.300102   20.827156
H   81.512527   23.833708   28.432844
H   93.254272   89.910568   59.902763
H   24.697891    0.980738   99.938133
H   41.754513   75.788567    7.187648
H    3.066320    7.116326   88.545143
H   48.367470   65.718155   86.616615
H   68.992317   19.459412   16.069056
H   80.349274   74.853317   19.136246
H   47.673794   34.417244   77.696465
H   29.650196   48.760147    3.859470
H   44.485950    4.417456   73.526222
H   83.105659   50.906685   40.485806
H   92.919098   93.019051   15.275776
H    6.861065   96.149269   92.839195
H    5.717766   84.293732   92.127243
H   48.596619   87.330536   74.636139
H   86.856606    1.045053   30.787531
H   51.577484   34.913170   51.433411
H   82.867470   44.382393    1.033297
H   82.886818   92.881767   26.227913
H   99.158585   39.248356   91.181076
H   21.929247   69.202217   38.138626
H   45.676044   21.234665   69.113701
H   43.625477   33.581043    4.212834
H   14.484367   66.427979   73.849319
H   15.824553   68.507744   47.056000
H    9.199634   85.543198    0.401465
H   24.519899   41.232826   92.477837
H   79.269501   46.597939   79.453041
H   85.431824   52.824776   17.075766
H   87.143990   54.110840   62.735771
H   75.452522   42.743484   37.759300
H   91.161308    1.296314   19.907988
H    0.324808   96.698097   25.327526
H   55.143768   55.037426   37.542507
H   41.099949   75.939720   21.615555
H   43.036892   92.149055   54.871910
H   20.617435   63.521351   47.380894
H   12.388077   21.461344   12.854182
H   13.084788   64.783234   16.930851
H   65.694107   16.358122    1.655721
H   38.092598   23.448490   74.419983
H   75.218315   67.227104   84.157494
H   38.339710   37.285114   29.451849
H   56.250843   97.585770   81.819061
H   71.283318   14.726177   35.937378
H   30.378050   34.006611   68.696426
H   43.527416   48.983727   55.674709
H   15.533021   43.881493   60.014503
H   13.318348   23.249573   90.441200
H   71.730316    3.710490   41.259113
H   23.722786   77.265656    2.222052
H   93.834000   12.307209   85.341736
H    9.819204   83.371956   76.340584
H   10.124565   56.676994    8.042673
H    7.155441   47.810944   95.054367
H   44.897064   44.237038   57.521477
H   73.199905   68.617416   97.711273
H   91.315857   25.953476   85.671936
H   88.748390   92.559975   18.876923
H   57.735275   42.958588   21.330313
H   40.816063   43.752567   15.490239
H   88.199104   31.634571   58.839214
H   70.398949   55.759480   77.394028
H   65.583321   29.776569   76.433037
H   67.569603   34.409645   46.811459
H   34.721779   58.908554    1.280755
H   15.236998   80.843834   59.580814
H   56.320988   44.423317   72.290535
H   93.038162    7.722263   56.262272
H   25.480652   35.837261   90.489952
H   72.488449   28.948195   17.620541
H   30.717344   21.287573   81.529800
H   86.384888    7.996010   94.819275
H   42.034439   36.727711   26.258259
H   71.811455   52.874020   20.074631
H   89.030502   97.298988    2.484951
H   15.069683   31.495401   92.779205
H   57.380436   45.625137   68.886169
H   31.336597   10.829261   50.282257
H   64.892303   30.473850   43.883644
H   41.910049   35.498230   27.007454
H   46.369968   16.912683   56.644650
H   81.447289   87.793373   33.747524
H   59.400146   88.160774   93.514076
H   60.124214   82.257225   26.450043
H   47.414955    0.481922   31.861872
H   32.780338   84.986694   37.981030
H   94.120461   11.601217   37.602028
H   99.015144   34.043503   35.470695
H   67.912514   26.212889   41.247440
H   52.891972   30.560818   21.004444
H   11.597153   87.280876   56.395576
H   45.615807   79.961479   24.881630
H    7.650988   18.059753   52.611313
H   98.517754   37.772762   27.126163
H   52.531628   73.206688   77.074692
