100
TIME:    5.619, STEP:  5619
H   37.331947    6.731135   94.001663
H   45.291542    9.348216   32.401058
H   76.345596   78.157547   57.387875
H   82.419739    1.146554   32.165985
H   44.842178   23.145052   13.351406
H   40.886707   95.120613   35.214573
H   58.477024   40.759846   29.866198
H   78.243973   74.716263   92.275612
H   15.502190   46.049500   46.391335
H   21.287790   97.063881   27.723593
H   77.589340   92.335388   98.499306
H   41.380157    5.342130   92.962929
H   85.506912   21.798603   66.689629
H   76.861717   87.756538   84.848396
H   48.846794   68.115768   80.672729
H   75.595810   20.270889   66.614960
H   72.260536   53.622921   84.908081
H   21.226347   21.417141    4.742697
H   32.786091   14.076190   59.391216
H   41.130585   86.487587   98.900307
H   30.837288   96.827515    4.735409
H    1.079346   51.543289   40.768509
H   10.721528   48.923256   71.583984
H   96.971596    4.047823   89.757324
H   28.615871   40.545349   78.037453
H   20.931749   60.549110   62.031334
H   77.546768    8.900999   11.455200
H   58.426052   18.715614   52.508713
H   33.350990   58.891544   91.559631
H   16.450924   51.769554   30.082535
H   37.198196   25.922421   64.821541
H   20.544163   97.266861   79.085091
H   66.153191   57.369408    4.000851
H   15.517417   58.774895   35.030800
H   41.098846   34.166885   66.884750
H   61.087605   25.533092    1.760518
H   18.734558   98.754517   51.220501
H   31.748867   56.125553   18.959270
H    7.891314   58.988213   99.789848
H   33.946690   86.151375   80.126122
H   51.232574   48.983131   74.726906
H   26.675419   63.638748   66.817650
H   59.640575   97.195419    7.340829
H   20.552036    6.957664   30.132288
H   69.248192   10.196130   36.943829
H    5.593007   70.090652    5.988986
H   85.633102   30.418911   79.402779
H   56.539501   53.243851   16.249762
H   29.279152   67.083252   20.329311
H   43.725117   16.256124   90.664352
H   43.115925   27.165579   12.660342
H   78.205620   42.338322    5.184031
H   25.426723   54.589600   76.527092
H   46.567078   15.522120   79.767723
H   93.401421   51.027767   48.140881
H    0.594178    6.623080    1.342784
H   52.471031   27.413094   90.401024
H    7.653514   46.242668   68.822739
H   33.435226   76.185493   80.109932
H   88.222961   59.684231    3.792854
H   14.151217   17.262833   76.293907
H   99.488625   75.641220   41.112854
H   55.535252   23.852739   48.158752
H   28.885845   72.372208   74.585526
H   55.351868   12.063557   18.842115
H   56.161888   62.935936   78.422462
H   36.746033   42.625385   38.348221
H   92.222862   38.894444   34.823292
H   36.952656   46.040825    7.817845
H   44.225182   30.761097   89.901123
H   43.604622   13.083979   94.743568
H   10.655287   65.041275   68.019821
H   40.622452   40.366936   17.675903
H    6.515079   93.792747   69.291679
H   33.086185   36.651310   27.356716
H   58.497757   67.699272   17.842402
H   77.124229   39.528553   90.423027
H   95.971161   83.308144   24.755739
H   30.964458   37.013950   80.374611
H   23.962982    2.925447   36.839294
H   20.826952   87.412796   15.823678
H   62.932083   80.910873   16.911406
H   73.289955    1.088828   65.069763
H   36.728188   92.988815   50.207577
H   78.730263   97.412376    3.053435
H   21.968853   15.448558   31.983749
H   42.435036   94.805702   91.479050
H   46.397972   55.436314   37.317451
H   72.293320   81.315529   82.234627
H   69.544373   78.095505   25.083605
H   53.975304   76.840622   52.124798
H   94.047997   18.081884   40.590622
H   45.642136   96.116615   53.530476
H   90.322548   54.071362    5.679690
H   59.442558   46.414356   45.204105
H   58.027954   73.843597   77.220184
H   16.592714   90.143730   14.035518
H   27.431360   64.484680   66.078209
H   41.036774   61.071598   74.387474
H   88.228958   34.442181   56.445354
