100
TIME:    1.329, STEP:  1329
H   27.447195    0.145337   97.929276
H   64.301689   76.802223   61.833157
H    2.599330   69.517693    7.735208
H   81.699677   77.894920   67.317741
H   83.267319   79.282738   29.669685
H    7.407835   99.768288   10.360661
H   83.317162   51.078945   94.382301
H   15.429520    3.578069   86.169624
H   20.958641   58.515472   16.430899
H   38.521049   35.465828   59.734329
H   76.634689   19.717442   11.733816
H    5.114399   90.306755   98.329887
H   58.723488   81.300941   93.037346
H   89.277596    0.979734   58.378628
H   96.665459   51.313709   86.888626
H   48.088394   95.491814   22.722153
H   17.217598   69.885880   94.358025
H   29.544426   30.071548   53.472458
H   65.959908   34.106804   33.379208
H   56.710762   77.590927    6.817103
H   85.411896   23.911079   21.173290
H   89.780937   45.854065    6.092612
H   67.999962   83.813545   94.325073
H   95.562996   52.621006    8.370611
H   82.051628   80.772926   46.367958
H   40.565166   88.009064   64.604584
H   47.477982   87.232315   26.338774
H   20.404602   18.472927   10.701724
H   40.068878   69.669281   94.350456
H   51.952755   57.947220   89.040611
H   68.380836   41.222733    4.246861
H   49.670994   15.794892   76.231895
H   63.971996   71.246376   17.523771
H   34.255226   51.927773   15.762819
H   47.737450   58.457954    5.656394
H   88.105896   88.883560   16.071432
H    7.267762   55.865578   13.185193
H    9.062248   34.629673   16.225895
H   90.973221   52.137764   14.748088
H   38.016563   87.766685   42.597240
H   44.418236    1.784483   73.655197
H   12.178246   71.505424   65.238770
H   22.688292   71.469559   97.468819
H   94.494194   35.043945   10.676959
H   41.374527   79.454453   69.836258
H   60.941563   88.265419   88.568001
H   50.113087   97.431793   38.979439
H   56.310390    9.066710   50.808910
H    3.880351   22.381752   91.459427
H   53.763172   50.977627   90.713219
H   43.443226   41.337471   67.429626
H   69.719887   40.417782   86.815323
H   36.448021   29.714722   25.683010
H   45.914799   85.521690   90.462296
H   34.958397   75.012756   11.683613
H   95.229111   11.135231   47.384506
H   80.504166   51.199333   82.386345
H   27.097832   51.380196   79.323196
H   95.092979   94.921463    9.454899
H   71.317429   29.939260   25.809654
H   43.535381   16.767868   10.777117
H   51.742340   15.575123   35.221909
H   64.379456   16.525555   42.383644
H   34.299065   49.023918   91.057213
H   85.072762   54.699818   19.328024
H   19.702553   76.204567   24.766203
H   80.940201   94.310364   31.227245
H   88.562538   93.543503   29.736486
H   23.138908   54.292862   76.880531
H   57.307266   14.987543   98.934631
H   79.830193    4.975313   46.208164
H   64.383865    7.418352   53.925575
H   20.338581   52.567295   27.671001
H    0.939857   65.279312   24.222176
H   26.248707   30.534708    2.144670
H   57.079838   92.748924    6.505368
H   87.619621   11.357847   14.550207
H   94.419159   63.822174   87.835510
H   25.254877   49.609226   32.507454
H   34.348953   36.573784    6.426678
H   36.889469   43.030773   59.419720
H   41.039295   52.906937   75.647171
H    1.887748   29.438421   56.480534
H   41.593655   25.885843   42.040535
H   87.617783   65.755814   18.920677
H   20.703312   57.872959   34.073174
H   55.915627    6.723808   86.914871
H   77.349442   98.891830   81.927849
H   83.262642   20.175592   17.326527
H   48.837082   54.598213   71.724602
H   78.410683   45.193394   61.527782
H   76.619499   95.459969   58.843445
H   70.555244   67.450485   21.730070
H   75.681129   93.846138   16.426708
H   33.615620   30.685913   46.625023
H    3.691539   43.249809   98.804153
H   57.112473   43.948940   60.757126
H   11.744782   27.553314   34.772606
H   45.401451   42.579090   33.726917
H   21.776810   44.567112   69.684151
