100
TIME:    6.799, STEP:  6799
H   57.533524   98.520149   92.921341
H   12.704487   73.292747    6.803558
H   96.637650   63.051201   43.532742
H   82.617798   52.531952   67.487915
H   34.273026   17.727171   81.356857
H   22.584248   93.842232   52.074444
H   96.635193   20.438206   22.143808
H   85.498299   76.801361   83.932304
H   86.495476   32.597351   72.115013
H   89.054634   14.008297   73.926094
H   67.828613   39.814945   84.835213
H   96.340485   64.489365    8.969109
H   10.208450   50.440220   49.438652
H   18.435333   84.119453   74.647575
H   63.186653   62.712639   23.939014
H   28.151291   17.063759   68.664551
H   77.371925   31.671803   92.328133
H   46.460873   63.999710   63.835037
H   51.160572   63.581955   21.560085
H    9.342102   61.425037   79.240166
H   60.814423   79.355621   72.704536
H   14.207092   53.109756   40.280609
H   94.965752   39.326393   37.823914
H   87.332924   18.164034    2.120079
H   86.413521   46.965889   86.752052
H   15.549389   25.665592   51.067261
H   75.794151   59.852524   34.870747
H   58.861015   73.794044   91.511002
H   59.008644   65.950447   35.778992
H   61.696873   22.564842   23.889359
H   83.639244   31.735386   71.463768
H   95.050385   64.659134   69.846581
H   49.270016   71.035225   10.304570
H   65.375755   50.634903   85.320724
H   11.747705   44.890327   38.708344
H   63.663067   17.955540   98.050514
H   31.911900   55.541626   44.199863
H   82.976952   34.528111    2.229032
H   58.086178   33.276543   85.438934
H   22.803974   75.684189   72.966476
H   70.588196   89.473869    2.527029
H   27.231400   68.265427   27.061478
H   69.799469    4.273130   92.573357
H   45.203876   26.763632   45.505585
H   66.891884   63.635830   37.919376
H   90.362419   92.597366   10.782915
H   94.851852   94.590164   90.728157
H   56.602596   65.397476   89.261536
H   63.768440   69.355934   73.260605
H   68.485596   34.218563    8.145375
H   43.034740   13.243841   25.098156
H   35.557941   32.842712   27.724373
H   49.905025   61.431641    7.992868
H   19.243927   96.268921   31.836517
H   99.447952   54.437439   58.178875
H    2.063905    5.381835   61.172791
H   27.279154   93.363945    2.628850
H   19.788134   34.806206   38.429672
H   26.499847   26.046345   89.524590
H   10.355770   50.382633   70.230858
H   88.586449   62.384804   84.292343
H   57.608131   64.657944   87.720535
H   35.644390   43.331825   67.242615
H    9.914402   78.800125   42.547939
H    2.185761   17.819035   28.730612
H   83.674225    4.274887   48.193787
H   42.072342   83.420837   95.317215
H   10.712400    6.378929   91.234116
H   95.762337   61.253555   33.811359
H   68.128868   90.111748   87.416382
H    6.132873   32.797668   80.591347
H   13.362075   25.877693   54.415276
H   63.683716   82.000839   87.421692
H   80.535500   19.111103   99.180695
H   89.978264   38.334812   16.808380
H   86.389854   43.325199   38.442993
H   84.276947   37.330189   11.322783
H   51.409710    6.149858   89.922600
H   87.550087   33.547916   93.536537
H   66.095657   38.646370   35.181175
H   43.918839   99.620438   86.349686
H   51.487732   88.563293   18.200439
H   47.927879   20.821325   77.446106
H   17.910385   93.964012   42.433163
H   21.274412   23.603432   88.665657
H   94.809799   58.794769   13.926549
H   21.244631    9.009925   47.745964
H   65.375633   61.012104   25.082802
H   96.780624   15.615040   72.583748
H   65.216782   29.546635   67.262619
H    2.265744   40.558052   77.044235
H   81.356049    6.829400   63.070328
H   21.282337   31.523136   44.781685
H    4.364322   25.660242   85.245163
H   39.042473   40.716965   72.320190
H   55.491119   27.246157   16.272003
H   22.929628   57.860336   46.172806
H   25.153681   22.874210   42.391357
H   84.824486   66.161934   75.550179
H   61.521732    4.162153   42.771549
