100
TIME:    3.826, STEP:  3826
H   58.585358   71.157654   95.643204
H   94.842369   12.183657   19.342573
H   45.520195   49.161491   78.431252
H   82.118790   75.018730   30.446547
H   60.901917   79.428276   61.965927
H   68.694832   97.063103   57.648338
H   52.448666   19.686962   89.651115
H   19.170242   19.599957   56.904156
H   59.577553   18.439224   59.255108
H   70.286278   71.319054   57.513870
H   44.369827   20.189686   71.209084
H    9.811493   15.468002   20.590052
H   99.891220   30.229218   44.855499
H   65.639824   93.283058   48.401073
H   27.040108   28.273338   66.861732
H   47.689697   77.093071   15.449778
H   16.443123   35.030704   21.684225
H   82.898399    8.642236   66.903015
H    4.859766   38.859322   64.929047
H   89.440117   24.566896   76.824516
H   37.236450   75.327393   53.397240
H   29.182693   49.163055   93.459061
H   34.661415   63.505608   22.884113
H   63.564644   82.568542   22.920895
H   92.745026   82.738541   64.795692
H   29.113356   13.608130   30.559954
H   32.158237   83.435257   75.884804
H    9.715491   35.024445   93.237907
H   94.363083   96.216934   76.315407
H   47.698624   96.145866   87.544922
H   66.634468   65.139381    6.678001
H    7.333212   46.801926   45.072060
H   39.855762   88.554283   42.473251
H   39.759613   23.092567   10.568211
H   85.666672   69.703819   57.703743
H    5.217462   85.037994    7.480206
H   46.761917   64.419418    9.939101
H    5.857640   88.932289   92.432167
H   83.576111   98.056877   73.544518
H    2.827372   54.006554   39.055988
H   73.771896   87.463425   32.484600
H   87.762039   83.571411   82.550278
H   44.196415   86.443329   77.829155
H   35.042480   76.892242   54.819458
H   24.778837   80.936401   83.511658
H   28.727001   35.891895   98.702919
H   71.625290   32.909386   62.192528
H   56.443745   34.776520    5.309115
H   76.866684   15.580750   91.852997
H    6.120158   88.971046   16.069469
H   43.252720    0.267471   93.757553
H   91.069687    8.714703   22.891850
H   88.237679   44.193176   80.661812
H   88.092308   44.782524    0.648173
H   36.161880   93.888611   32.888233
H   98.353409    8.509604   62.380737
H   38.803219   79.148979   19.872015
H   41.164055   15.569017   15.005934
H   92.025734    0.425915   17.758648
H    6.543160   21.866880   54.790047
H    1.047222    0.646550   16.091373
H   63.122398   92.330215   22.239388
H   33.807163   46.204033   71.110161
H    5.763551   62.606995   23.263737
H   84.183342   55.268459   51.868000
H   66.307930   52.070992   72.406784
H   80.601151   80.636414   51.781902
H   16.077980   36.350845   49.107525
H   47.590462   74.874374   20.271969
H    7.901560   40.579453   93.676666
H    0.538752   35.079231   16.252396
H   58.495064   24.547821   36.743427
H   57.529282   29.056713   63.652718
H   45.987240    7.262138   75.826317
H   46.637646   34.093243   91.434364
H   16.104975   52.784271   38.488277
H   14.330599   94.934128   58.713932
H   11.732768    0.547228   25.735231
H   44.982529   42.280560   60.372696
H   11.891083    0.581000   91.307976
H   85.745773   68.863388    8.660233
H   28.393814   69.214249   66.849731
H   59.870113   71.120544   94.307587
H   13.373297   39.558418   13.971423
H   66.034866    9.565210   76.864670
H   63.239918   49.590828    7.472255
H   22.684622   25.171562    5.981785
H   17.542048   98.975624   55.953850
H   35.085068   81.146873   96.899055
H   28.068480   51.865013   60.985413
H   80.598267   80.023979   14.259927
H   61.381416   83.238823    6.428888
H   30.707481   42.316589   14.874979
H   17.024776   45.308304   84.785851
H   90.440315    7.019141    4.005088
H    9.933547   44.646248   69.831017
H   58.912384   87.247032   17.152296
H   20.910330   48.813782   94.815285
H   26.451439   53.342678   24.569122
H   76.857918   80.451241   29.168966
