100
TIME:    6.762, STEP:  6762
H   60.035721    1.913186   92.955215
H   13.726227   71.287941    4.470557
H   96.001373   60.389229   43.967182
H   82.611588   54.056305   69.515869
H   34.604431   14.761457   82.360107
H   23.158138   93.882317   48.410069
H   98.574509   17.939678   19.250360
H   88.406425   73.600220   87.329353
H   87.405006   36.154739   74.443886
H   90.065224   13.476961   72.477394
H   71.270264   38.326160   88.399376
H   97.752487   62.634739   11.602711
H   12.569504   52.677914   53.115166
H   20.267239   84.233498   71.832039
H   62.737251   66.017662   25.718273
H   29.639088   20.299904   71.735840
H   80.347237   29.224651   88.959877
H   45.669621   65.800140   65.117714
H   50.584423   62.029655   19.610889
H   10.338860   62.210644   76.721031
H   63.010056   83.038910   73.708916
H   10.659866   53.060638   43.431503
H   95.459755   39.627312   38.882492
H   90.770622   17.721407    4.868042
H   87.736885   49.900269   86.478798
H   15.721312   26.757568   54.548294
H   78.984566   61.390709   34.136517
H   61.982834   72.067009   90.288132
H   58.204124   62.593487   37.528046
H   60.278095   23.480583   20.948063
H   82.183205   28.417519   74.391090
H   92.714172   65.681580   73.271858
H   46.663654   73.742363    6.971318
H   63.812447   54.025742   86.879517
H   12.668598   47.691750   36.457100
H   60.446682   15.057458   98.166817
H   28.363121   56.896606   41.284397
H   84.506386   35.205318   99.618080
H   59.648075   34.082756   89.024551
H   26.288956   79.147858   70.055527
H   73.116928   88.204140    1.655382
H   30.349548   68.120331   25.172550
H   69.481049    4.051182   89.900658
H   47.566341   26.142599   41.888069
H   70.101494   65.095749   34.753239
H   90.840050   91.891647   10.632597
H   94.562790   92.578018   90.373039
H   56.600544   65.016388   86.972183
H   62.686996   72.420448   74.736404
H   67.708740   33.655399   10.732471
H   43.037281   16.816050   24.708176
H   33.759487   36.276176   30.153175
H   49.137486   61.217102   10.141783
H   20.100670   96.872452   30.203907
H    2.393996   51.194801   57.864124
H    2.017822    5.420755   62.432358
H   24.933626   94.431557   99.109810
H   22.543119   38.300362   39.382675
H   23.581841   24.482754   92.364967
H   12.797346   47.538586   71.283226
H   86.252495   64.105362   87.177322
H   58.921333   65.002335   89.394501
H   33.132313   45.856606   69.779816
H    7.373663   78.598572   43.552601
H    0.717125   20.774162   25.284868
H   85.947205    6.114202   46.006058
H   45.040878   82.141510   93.530899
H   13.268303    4.262795   89.465302
H   93.918434   63.912140   36.132046
H   67.379112   88.250908   87.494293
H    7.307859   35.315109   81.035103
H   16.409582   27.107544   51.704506
H   66.096146   83.830627   88.370178
H   81.350182   21.452820    1.379080
H   88.194206   38.282024   14.003429
H   85.515327   40.953701   40.932487
H   80.916595   40.532742   10.666605
H   49.671383    8.569231   87.879402
H   85.775627   33.656597   93.123833
H   67.910202   40.661903   38.368767
H   43.194771   99.237656   84.138245
H   48.711433   88.323349   21.295864
H   45.587433   20.202551   73.922592
H   15.364858   90.797874   45.812428
H   23.075983   25.917908   92.252403
H   95.661179   57.435555   11.357097
H   18.773485   11.700196   45.981667
H   64.780571   63.973019   25.466431
H   96.012802   17.675047   72.886360
H   68.487930   31.069012   65.939819
H    0.751530   38.560303   76.262863
H   78.618423    4.046714   62.365456
H   18.910557   30.412899   41.920418
H    0.788482   23.415491   82.750305
H   39.682137   44.031303   71.469940
H   52.435074   28.707136   18.183090
H   25.866407   55.736969   48.300690
H   25.225100   21.043434   43.134056
H   86.587090   66.002159   78.649132
H   59.223629    5.111592   46.335995
