100
TIME:    6.485, STEP:  6485
H   78.768387   27.314734   93.208817
H   21.375469   56.277897   87.005592
H   91.237900   40.460411   47.219616
H   82.565094   65.468353   84.698120
H   37.085495   92.558777   89.870926
H   27.454563   94.182411   20.977196
H   13.091887   99.234917   97.588524
H   10.178085   49.636189   12.762111
H   94.214195   62.787079   91.878960
H   97.630989    9.499123   61.631718
H   97.036133   27.180395   15.081825
H    8.325058   48.750080   31.319138
H   30.245499   69.429695   80.639336
H   33.981926   85.087288   50.752232
H   59.372810   90.760674   39.038670
H   40.776627   44.527260   94.729004
H    2.621907   10.903939   63.743477
H   39.745922   79.279037   74.720741
H   46.271091   50.408386    5.018206
H   17.801071   68.093544   57.861565
H   79.447632   10.614559   81.228188
H   84.103607   52.692917   67.020630
H   99.158104   41.880135   46.807526
H   16.507607   14.407686   25.440619
H   97.644234   71.867706   84.433083
H   16.984034   34.946770   80.596581
H    2.869699   72.904678   28.639715
H   85.356216   59.137581   81.133133
H   52.181099   37.461620   50.622314
H   49.656437   30.336266   98.927963
H   71.282585    3.578569   96.306450
H   75.224152   73.336105   98.915154
H   27.151428   94.009315   82.016968
H   52.108757   79.411209   98.549393
H   19.562576   68.664558   19.603197
H   36.367260   93.361443   99.037514
H    1.795301   67.040649   19.457800
H   95.956474   40.275227   80.069664
H   71.339874   40.118462   15.867662
H   52.378399    5.078875   48.261211
H   92.048248   78.698326   95.129494
H   53.693527   67.034073   11.031121
H   67.097198    2.389438   69.891533
H   65.253052   21.493246   14.804942
H   94.130196   76.025955   11.049060
H   94.415825   86.608292    9.507242
H   92.398727   77.514114   87.714455
H   56.585751   62.163376   69.832977
H   54.590782   95.362892   85.784958
H   61.893589   29.438639   30.100340
H   43.056301   43.558884   21.788593
H   20.294464   61.980759   48.336372
H   43.391308   59.610962   26.229601
H   26.514664    1.391280   17.981392
H   24.449825   26.919060   55.507748
H    1.672819    5.712132   71.862091
H    7.373605    2.424338   72.764885
H   43.168854   64.459312   46.517319
H    1.735878   12.777097   13.629679
H   31.075737   26.246662   79.161766
H   68.779381   76.988297    8.775026
H   68.752602   67.580612    1.926894
H   14.326674   64.758339   88.774536
H   88.353073   77.089645   51.073986
H   89.723434   42.898205   99.488380
H    2.963672   19.884361   29.627653
H   67.264786   72.563843   80.157669
H   32.402580   88.420937   76.223099
H   80.114082   83.815598   53.505833
H   61.766914   74.319756   88.077576
H   16.104145   54.161896   84.357277
H   39.249195   36.300583   31.422791
H   84.156769   97.533020   95.471008
H   87.449287   38.983631   17.836840
H   74.837883   37.886829   93.004654
H   78.968193   23.200035   59.570053
H   55.759365   64.508568    5.754020
H   36.657421   26.681631   72.583031
H   72.491158   34.470234   90.034126
H   81.494766   55.751167   62.232628
H   37.774048   96.371964   67.582321
H   27.926504   86.527008   44.469151
H   28.065712   15.570153   47.542534
H   96.307594   67.094627   71.111839
H   36.564034   43.245201   19.104233
H    2.035614   47.259811   92.121170
H    0.273203   31.840462   32.773277
H   60.325645   86.137756   28.338463
H   90.264511   33.097237   75.151863
H   92.977341   42.466267   56.038399
H   89.415550   23.603588   70.413132
H   58.123226   83.213531   57.088440
H    1.154598   22.101124   20.499582
H   74.016701    6.610487   64.072586
H   44.470970   68.843643   65.104553
H   29.556030   39.645477   32.490417
H   47.853325   39.840408   64.231064
H   25.759775    7.337367   48.694260
H   99.782799   64.806007    1.849568
H   42.018909   12.219711   73.020454
