100
TIME:    9.397, STEP:  9397
H   81.841461   60.271889   90.542801
H   40.953415   14.072880   70.616997
H   41.296673   49.961464   13.033648
H   83.053864   45.494682   25.080584
H   10.994032   25.967972   10.915039
H   82.298462   91.027626    9.361918
H   60.471714   95.867653   25.310818
H   81.300629    1.562586   45.392853
H   22.631676   82.808655    8.579176
H   18.092913   51.312000   75.651283
H   26.168976   44.349655   34.580727
H   97.182213   94.713829   24.040062
H   44.534210   93.200996   91.259674
H   89.798645   76.111702   72.356682
H   94.741951   30.646461   99.000023
H   23.690418   89.832870   53.007874
H   68.456154    3.510237   28.834333
H    2.016136   37.580788   73.778885
H   91.629105   72.570267   58.430569
H   39.343365    6.258104   56.124046
H    6.645107   20.716444    2.193113
H   63.279888   56.558640   19.036896
H   60.278709   18.203505   63.491333
H   45.941341   49.243622    9.170809
H   93.494492   40.931770    5.936069
H    3.297832   49.079941    6.582037
H   51.765709   51.855938   86.416977
H   39.650063   95.059906   77.388298
H   15.500060    1.661665   12.971012
H   61.315620   58.263748   30.422691
H   85.886864   64.701935   65.918365
H   59.089619   92.883713   29.336693
H   32.269310   80.953384   44.352928
H   75.147552   12.543652   75.870995
H   47.090446   48.185219   96.773117
H   89.502899   21.446089   89.884193
H   81.093262   60.396736   48.912128
H   75.595436   86.984123   85.561424
H   48.422741   76.672874   33.672913
H   78.100616   32.467422   77.371658
H   93.033539   78.615433   63.733730
H    8.285912   78.453506   59.692928
H   92.157745   19.858749   80.227501
H   79.318886   70.377663   99.523262
H   41.535652   61.147495   60.240589
H   56.829247   42.144207   21.337687
H   15.159083   35.880390   15.672491
H   56.761166   92.156052   50.010273
H   39.712975   54.189907   69.625641
H   23.026525   73.766685   26.494278
H   43.605473   62.481300   51.338257
H   61.823330   91.767090   57.181557
H    3.785119   76.495728   57.110695
H   59.074837   53.886536   46.479378
H   92.591377   82.113235   80.264877
H    5.299711    2.648992   72.730728
H   91.981384   18.400291   49.720390
H   26.335680   89.456139   71.509789
H   31.400356   35.826576   90.077644
H   38.913418   50.073582   96.337563
H   52.473248   41.566914   81.735725
H   65.400017   40.476120   70.172279
H   12.022571   66.048607   89.089966
H   88.315125   92.952438   72.013123
H    5.305171   10.319820   70.670280
H   24.076641   75.120934    1.808390
H   33.630051   73.239105   20.749489
H   31.250824   54.962105   15.433548
H   25.246874   74.577850   70.870392
H   20.873169   20.631945   81.912735
H   23.627972   56.027142   49.432472
H   99.447624   39.583397   44.841747
H   94.289993   53.495113   20.809589
H   23.345707   54.682987   44.815376
H   15.133897   42.151821   13.788345
H   47.810211    9.831904   63.629059
H   20.230896   12.465549   57.402550
H   73.460182   36.281227   33.411293
H   12.134717   25.916767   22.527788
H   38.687187   97.119606   11.361240
H   94.777458   26.498636   41.629311
H   46.438881    5.416854    0.851292
H   12.254213   64.269325   24.865688
H   96.648018   16.280746    5.147260
H   94.775726   61.079994   36.819809
H   35.019550   54.222893   94.339279
H   94.759224   20.113716   71.628380
H    7.158138   53.119118   98.147141
H   50.699711   70.962410   51.335457
H   35.517696   22.657753   60.134537
H    8.586956   80.840454   31.909569
H   73.581741    2.224030   12.578500
H   87.819412    9.470579   45.689018
H   54.698891   83.220383   61.573086
H   94.121063    8.002934   32.017555
H   70.075256   24.654520   82.081528
H   16.712826    6.953329   96.757660
H   20.138926   51.423069   90.232079
H   61.061607   77.380714   57.941227
H   22.895660   37.492397   92.496811
