100
TIME:    2.336, STEP:  2336
H   59.348053    7.798249   97.007339
H   36.290199   31.398550   25.354086
H   19.908545   41.964828   95.914925
H   81.868698   36.407799   12.118532
H   74.247711   59.998219    2.366911
H   91.794197   98.677330   10.087389
H   30.541088   19.074997   73.131096
H   36.281303   90.695923   93.709816
H   96.204597   61.696518   53.044987
H   11.004190   49.924858   99.163292
H   82.966003   60.236530   14.734480
H   66.684052   40.782150   26.649649
H   94.669792   20.376335   92.949760
H   39.416222   97.875648   35.010929
H    8.914154   61.366241   38.482933
H    7.598570    7.414004   39.133560
H   36.256531   36.480415   86.040497
H   51.063950   81.100868   18.560333
H   81.648186   76.352280   86.432190
H   29.582794   56.204815   75.378395
H   25.655075   23.661030   93.840881
H   86.334946   47.185059   20.346268
H   54.555061   75.623680   65.514572
H    2.001792   64.698364   33.582382
H   46.034660    0.908604   53.797226
H   35.947803   58.001583   70.217873
H   60.643875   45.372997   46.321735
H   35.437172   65.476295   43.987988
H   61.964859   61.032112   46.747826
H   90.566505   33.024216   69.093925
H    7.994313   31.527685   24.564480
H   13.253538   87.971336   83.008858
H   34.902088   97.569893    8.242284
H   76.802574   59.642288   73.339249
H   22.705460   82.336365   66.973198
H   75.660477   67.990410   12.609605
H    3.852196   18.986780   92.533081
H   67.438103   16.198635   87.286629
H   46.470581   30.517962   17.936445
H   43.168201   93.494484   21.825418
H   75.600670   36.337223   97.379684
H   21.674835   16.697983   12.548820
H   31.362173   77.508240   70.204185
H   30.189264   51.923058    9.136043
H   54.024220   39.723705   56.009010
H   47.949947    7.472401   92.655251
H   59.980747   51.877594   47.880470
H   56.364170   19.434649   13.116325
H   33.313293   38.981579   51.291313
H   74.879234   66.303658   20.282078
H   43.366398   44.118065   78.047256
H   18.657866   46.976078   20.707478
H   57.337555   35.553650   67.199821
H   22.597500   69.095863   34.896881
H   54.792175   63.292324   20.227858
H   96.489090   10.076925   13.103851
H   44.343380   22.142982   78.160439
H   52.113373   56.281326   53.386063
H   74.511604   37.471020   32.146919
H    4.867769    7.339896   97.169197
H    7.056997   69.935616   32.262806
H   16.003674    6.200186   89.657471
H   32.681850   47.855873   73.299484
H    3.447792   54.501755   63.721729
H   25.041237   74.272278   13.107957
H   57.841042   26.143440   84.307899
H    0.146380   29.124929   79.844070
H   19.002464   51.135803   77.876907
H   73.329216   81.936272   13.721864
H   77.710266   65.638741   96.814178
H   47.854378   36.458626   34.128933
H   81.352966   73.997742   27.652296
H   54.680267    2.759701    1.849150
H   78.782402    1.552135   64.373131
H   74.798485   31.967550   78.482407
H   80.883385   57.289474   38.746418
H   79.049042   24.077627   32.363377
H   41.729855   97.974907   43.449169
H   73.531189   46.657162   43.741608
H   84.963448   81.731049   19.672585
H   56.595852   53.448650   19.606003
H   16.595566   59.483414   91.442238
H   65.601578   46.247803   52.392307
H   10.865273   12.056124   50.062042
H   38.586151    2.765142   21.303314
H   97.525452   94.859230    4.002103
H   23.170889   33.506699   34.932892
H   93.560150   18.268524   71.453621
H    4.160436   64.107384    9.088335
H   59.805561   13.164871    7.725124
H   19.621399   99.569595   82.793777
H   51.130100   71.191704   78.033012
H   35.165714   97.628525   99.634171
H   73.011635   54.929394   84.322792
H   16.202908   40.485298   69.765617
H   86.865585    3.485786   46.791595
H   77.181778    1.738916    2.843817
H   15.442130   36.127319   18.658592
H   97.431969   46.919872   49.374092
H   84.314804   18.701099   72.695465
