100
TIME:    5.453, STEP:  5453
H   48.558022   21.953766   94.153641
H   49.876198    0.352594   21.934216
H   73.490952   66.214645   59.336987
H   82.391876    7.986172   41.265640
H   46.329025    9.839418   17.852028
H   43.461460   95.300453   18.774912
H   67.176933   29.550236   16.884783
H   91.291245   60.354710    7.516896
H   19.582787   62.009674   56.841057
H   25.823687   94.680367   21.222754
H   93.030258   85.655975   14.489285
H   47.716354   97.021553    4.778965
H   96.099747   31.837353   83.184258
H   85.081169   88.268196   72.216530
H   46.828026   82.943710   88.651550
H   82.270157   34.789810   80.394257
H   85.609230   42.643810   69.796448
H   17.676405   29.494114   10.496946
H   30.200764    7.111839   50.646175
H   45.602524   90.013466   87.598244
H   40.687965   13.353508    9.240910
H   85.164764   51.322922   54.904953
H   12.938184   50.273323   76.333282
H   12.395309    2.061983    2.085378
H   34.552765   53.710403   76.811501
H   21.688471   65.456345   77.641800
H   91.860519   15.801729    8.161404
H   72.432808   10.967293   47.021057
H   29.741524   43.830570   99.406738
H   10.085938   55.878014   16.886452
H   30.664558   11.036960   77.954933
H   10.062958    1.853597   94.452553
H   54.460018   69.514946   89.046257
H    8.503337   73.987846   42.024300
H   45.225037   46.715164   56.776619
H   46.657337   12.530865    2.282563
H    2.813064    4.834068   38.140301
H   38.609386   59.163837    7.245375
H   14.898431   62.605278   15.876108
H   49.581379    1.691184   67.066185
H   62.577698   43.287773   70.816017
H   41.535912   56.592659   58.982021
H   58.210720   96.199966   95.350288
H   31.151203    4.171251   13.901761
H   83.648064   16.745377   22.738581
H    7.735099   66.924454    5.314585
H   84.336227   21.390812   77.809547
H   56.530636   51.534103    5.978645
H   24.427269   80.832153   26.951099
H   40.243565   13.729498    2.275202
H   43.128590   43.191803   10.910384
H   70.138145   57.742512   16.082047
H   21.983166   53.627075   86.167534
H   50.410843   18.231064   72.442406
H    6.618642   36.479717   46.728756
H    0.387411    6.797696    6.993820
H   41.947853   32.202919   74.613091
H   20.013935   61.919151   73.098373
H   20.343626   69.171730   92.853249
H   99.178009   46.924450    8.514290
H    3.679647   24.982658   89.237328
H    5.379799   77.186325   48.624344
H   44.264851   35.180588   59.541870
H   17.486897   71.467941   79.091660
H   48.762375   25.321697    3.382835
H   66.359581   71.188316   68.607246
H   50.064331   36.886967   30.333805
H    3.689670   29.400740   26.887533
H   28.678747   57.968529   18.229324
H   40.862679   22.411831   90.250671
H   48.875710   24.378525   96.734474
H   24.342640   70.550461   55.865837
H   51.445786   48.577522   21.932541
H   10.168873    4.299147   79.155022
H   25.082754   36.414478   14.772343
H   54.572937   57.060020   29.012117
H   62.052959   53.917027   87.487328
H   88.172180   94.161873   15.587708
H   23.004635   37.501545   78.523018
H   32.102020   11.967793   51.140381
H   17.578432   85.695450    5.902394
H   50.473724   79.834366   30.797720
H   62.790695   98.312805   49.260387
H   25.307970   78.783981   65.368713
H   86.812935    7.795722   19.145073
H   25.789822    9.351092   20.456253
H   31.348272    6.875360   83.563553
H   43.728233   68.719971   39.038597
H   68.848495   90.558296   83.592293
H   84.220337   84.924362   19.149515
H   47.181908   67.876480   48.619183
H   81.765678    5.597329   37.428223
H   35.001175   91.136818   40.693439
H   74.278786   44.000317   94.486626
H   62.312401   61.284092   41.389469
H   44.317047   80.398895   85.794250
H   29.768534   80.617271   23.582306
H   26.880995   62.666718   68.772758
H   48.944672   60.356037   88.290886
H   77.917282   38.701351   72.436523
