100
TIME:    6.409, STEP:  6409
H   83.908035   34.284142   93.278397
H   23.474178   52.159336   82.213844
H   89.930954   34.992577   48.111980
H   82.552338   68.599457   88.863647
H   37.766220   86.467041   91.931656
H   28.633366   94.264748   13.450661
H   17.074951   94.103386   91.645226
H   16.151535   43.061451   19.740345
H   96.082420   70.094147   96.662590
H   99.706795    8.407730   58.656010
H    4.105453   24.122351   22.402519
H   11.225967   44.940571   36.728951
H   35.095230   74.025459   88.191093
H   37.745049   85.321541   44.968388
H   58.449715   97.549370   42.693363
H   43.832352   51.174477    1.037632
H    8.733447    5.877214   56.824898
H   38.120647   82.977219   77.355507
H   45.087650   47.219879    1.014406
H   19.848465   69.707802   52.687126
H   83.957581   18.180813   83.291237
H   76.817413   52.592026   73.492737
H    0.172831   42.498238   48.981903
H   23.569115   13.498507   31.085012
H    0.362473   77.894501   83.871803
H   17.330484   37.193626   87.743614
H    9.423279   76.063614   27.131567
H   91.769180   55.590157   78.621292
H   50.528572   30.566296   54.214966
H   46.742191   32.217247   92.886093
H   68.291801   96.763405    2.319310
H   70.425446   75.436264    5.950804
H   21.798111   99.569923   75.170288
H   48.897636   86.376175    1.751105
H   21.453995   74.418831   14.979053
H   29.760729   87.408867   99.276405
H   94.505714   69.823853   13.469337
H   99.098015   41.666248   74.706200
H   74.547516   41.774467   23.232424
H   59.536449   12.193872   42.281384
H   97.242401   76.090233   93.338966
H   60.098373   66.736038    7.151178
H   66.443146    1.933510   64.401665
H   70.106262   20.217611    7.374219
H    0.722873   79.024857    4.545352
H   95.396904   85.158707    9.198481
H   91.804977   73.381058   86.985023
H   56.581692   61.380600   65.130524
H   52.369438    1.657418   88.816330
H   60.298466   28.281580   35.414413
H   43.061520   50.896103   20.987553
H   16.600052   69.032867   53.325264
H   41.814739   59.170288   30.643587
H   28.274460    2.631400   14.627921
H   30.501263   20.258797   54.861233
H    1.578161    5.792077   74.449310
H    2.555620    4.617389   65.536674
H   48.828033   71.636497   48.474838
H   95.741684    9.565541   19.464027
H   36.090721   20.404835   81.323387
H   63.985310   80.522964   14.700495
H   71.449989   68.288010    5.365796
H    9.167021   69.944374   93.986084
H   83.134567   76.675644   53.137615
H   86.707138   48.968487   92.410927
H    7.632214   23.662560   25.133940
H   73.362320   69.936035   76.488480
H   37.652397   84.074501   72.589859
H   76.326607   89.276474   58.272648
H   60.227455   70.497490   88.237610
H   18.517704   59.332855   85.268776
H   45.515461   38.822861   25.858414
H   89.112030    1.292458   97.419250
H   89.122688   43.793354   22.352297
H   71.173332   37.778400   87.243423
H   77.171867   18.329140   64.683685
H   48.857021   71.086205    4.406124
H   33.086803   31.651098   68.386192
H   68.846321   34.693470   89.186409
H   85.221939   59.891182   68.780113
H   36.286774   95.585709   63.039906
H   22.223547   86.034149   50.827030
H   23.258308   14.299302   40.304466
H   91.078651   60.591209   78.053612
H   40.264534   47.999260   26.471603
H    3.784900   44.467911   86.843521
H   95.197334   37.366280   29.149313
H   59.103355   92.219055   29.126457
H   88.687363   37.328865   75.773445
H   99.696457   45.593311   53.321877
H   86.305321   19.499813   68.808151
H   52.499996   77.497528   55.640594
H   96.282852   19.820637   14.622386
H   66.671364    1.999777   58.948013
H   45.784874   75.650894   63.358097
H   23.278748   42.646698   36.415894
H   53.885918   35.478897   68.601852
H   25.906473    3.576921   50.219803
H    3.403214   64.477821    8.215553
H   37.298481   14.169983   80.341438
