100
TIME:    0.148, STEP:   148
H    7.314064    8.448979   99.010513
H   97.153297   12.769073   87.336334
H   82.307281   84.551720   21.602104
H   81.501450   26.553076   32.050529
H   93.845428   84.620377   61.692345
H   25.721336    1.052572   93.402184
H   45.213329   71.332237    2.026300
H    8.253790    1.406608   94.604744
H   49.989876   72.063766   90.770821
H   70.795998   18.512001   13.484385
H   86.488434   72.197647   25.493690
H   50.193005   31.108986   82.394493
H   33.848351   52.753220   10.419251
H   47.753925    4.620949   68.503914
H   82.303017   56.801628   43.658611
H   95.572662   98.791786   20.754345
H   12.167231   91.784584   86.829948
H    4.307414   87.503296   94.415329
H   47.568893   84.562073   71.158691
H   88.643166    2.429033   26.284876
H   55.494019   41.483864   53.224503
H   76.538979   44.295280    6.653242
H   83.768013   93.418541   28.116440
H    5.290747   38.456791   96.082535
H   24.289591   74.436012   37.651199
H   45.977161   23.202751   75.299187
H   49.316990   36.324833    2.903189
H   20.053017   63.347317   71.667984
H   14.389338   62.519650   50.175934
H    6.668968   87.176682   95.154594
H   21.923647   35.314217   97.700554
H   75.102203   48.421257   85.562996
H   80.783142   57.653725   11.129964
H   84.355385   60.159363   65.516319
H   77.093056   47.732559   33.740547
H   85.422966   96.111809   20.135084
H   93.994423   99.114998   20.126900
H   57.871445   56.245419   32.885265
H   44.067310   77.348625   27.941528
H   49.253094   98.327492   49.678902
H   25.127644   61.256931   45.825459
H   18.319778   18.499018    9.753509
H   12.516418   64.387451   12.163687
H   69.908737   15.252095   95.202408
H   43.817345   26.052547   68.772278
H   76.061241   65.986382   83.898674
H   37.642811   33.724583   28.887884
H   56.247318   96.905991   77.735352
H   69.353752   20.192104   38.570389
H   28.993818   33.002048   73.312881
H   43.530437   55.356026   54.982342
H   12.325723   50.006050   64.347427
H   11.949348   22.866882   94.274147
H   73.258057    4.787436   38.346638
H   28.977226   71.479980    1.662021
H   93.751419   12.376698   87.588531
H    5.635164   85.276344   70.063454
H   15.039242   62.909813    9.742750
H    1.950335   45.022339    0.120996
H   49.254196   39.163872   59.395149
H   69.036636   71.686996    2.857234
H   93.658325   26.567795   88.657928
H   84.271919   97.060616   23.404755
H   53.202911   42.599564   23.122412
H   38.196144   49.024128    9.343778
H   92.253609   34.915638   54.936779
H   75.694176   53.477940   74.207626
H   70.142372   26.001781   73.277855
H   64.280479   39.151985   50.951061
H   33.384880   55.588715    1.419544
H   17.332983   85.334404   60.372379
H   61.762745   46.613716   67.458565
H   97.341415   10.986713   57.954670
H   26.933365   40.014126   94.412529
H   69.306076   28.854284   12.617200
H   29.156874   17.057585   85.971024
H   80.392761   13.716476   93.651062
H   38.933640   41.043049   22.613384
H   68.648216   53.066875   19.338707
H   92.267258    0.893329    8.170853
H   13.778229   30.812349   88.834473
H   52.428501   45.194107   74.404968
H   27.160488    9.727641   43.996063
H   60.351982   24.826145   49.912025
H   45.124146   39.627243   33.405235
H   47.890659   14.486880   52.061932
H   77.039299   92.592110   30.600399
H   58.337677   93.444923   94.199898
H   58.754585   85.932060   26.990089
H   53.249977    3.197545   29.502535
H   30.079348   81.422638   36.587231
H   89.237129    6.637571   36.344688
H   94.780373   32.066101   30.364717
H   61.533470   22.209494   36.797657
H   54.032993   36.472881   19.488033
H    6.145807   89.887199   59.804543
H   50.854637   76.173851   28.677315
H    7.408722   17.497803   53.667236
H    1.661789   37.488262   32.654530
H   48.432812   74.901604   83.431381
