100
TIME:    5.721, STEP:  5721
H   30.434088   97.377403   93.908279
H   42.474464   14.875564   38.832867
H   78.099655   85.495956   56.190228
H   82.436859   96.944183   26.575008
H   43.928574   31.320803   10.585884
H   39.304630   95.010109   45.316364
H   53.131580   47.647678   37.842731
H   70.226974   83.541031   82.910774
H   12.994835   36.242645   39.970421
H   18.500868   98.528450   31.717993
H   68.101547   96.439606   88.673775
H   37.486832   10.454699   85.702339
H   78.998062   15.630215   56.554375
H   71.811211   87.442146   92.610146
H   50.087242   59.004623   75.770081
H   71.494705   11.349523   58.148163
H   64.058327   60.369122   94.193542
H   23.407637   16.454182    1.206948
H   34.374393   18.355501   64.764786
H   38.382767   84.321083    5.844873
H   24.784462   86.673584    1.966969
H   10.858185   51.678696   32.082260
H    9.359487   48.093697   68.665741
H   87.494698    5.268038   82.182343
H   24.968067   32.455978   78.790749
H   20.466776   57.533592   52.440041
H   68.751572    4.660868   13.479099
H   49.819958   23.476631   55.880646
H   35.568855   68.145874   86.737915
H   20.361759   49.245079   38.191269
H   41.212921   35.068844   56.751625
H   26.984531   94.448227   69.642433
H   73.337517   49.906487   13.189816
H   19.827446   49.427177   30.733706
H   38.563477   26.456217   73.096329
H   69.954391   33.522392    1.439730
H   28.517677   95.019165   59.257732
H   27.533367   54.258656   26.156826
H    3.585645   56.765678   89.905174
H   24.339521   76.602882   88.150902
H   44.261475   52.482689   77.129982
H   18.079433   64.038040   72.025352
H   60.519161   97.807083   14.708236
H   14.039236    8.669760   40.104973
H   60.400394    6.171872   45.672100
H    4.276782   72.036148    6.403376
H   86.429977   35.966019   80.381752
H   56.544949   54.294418   22.560949
H   32.260429   58.635628   16.260502
H   45.864384   17.808630   83.529831
H   43.108761   17.317869   13.735618
H   83.162743   32.873096   98.487862
H   27.542645   55.181030   70.603447
H   44.205246   13.857749   84.268822
H   85.280144   59.966930   49.008572
H    0.721231    6.515786   97.870453
H   58.937080   24.469948    0.102045
H    0.058499   36.610130   66.195541
H   41.479462   80.495155   72.279701
H   81.491547   67.524231    0.891741
H   20.585693   12.519468   68.340721
H   95.868446   74.691818   36.497360
H   62.460438   16.892145   41.164307
H   35.890236   72.927841   71.816696
H   59.400833    3.916939   28.341192
H   49.895836   57.865196   84.453499
H   28.562336   46.151402   43.272659
H   85.177055   44.727818   39.699482
H   42.036625   38.711754    1.420455
H   46.291298   35.891663   89.686340
H   40.365761    6.143812   93.520241
H    2.245047   61.656113   75.487411
H   33.971970   35.321877   15.060379
H    4.269978   87.336815   63.231071
H   38.003620   36.796833   35.089127
H   60.909393   74.236137   10.979225
H   86.384789   30.687502   92.226891
H    0.763309   76.638985   30.389116
H   35.855434   36.714344   81.512337
H   18.961681   97.369209   28.051800
H   22.823030   88.468033   21.919699
H   70.587891   81.572342    8.379025
H   79.741219    2.794493   74.783234
H   43.745201    1.717129   40.891766
H   73.763802   91.032707   93.165695
H   19.621029   19.195194   39.066910
H   49.247383   87.389473   96.342789
H   48.038414   47.273792   36.259880
H   74.410019   75.636238   81.400398
H   60.526310   73.899460   28.729853
H   58.149559   82.348709   54.278851
H    1.594965   25.752974   42.533783
H   52.180557   99.176491   61.418293
H    0.180758   60.259594   12.557244
H   57.679161   37.277531   47.548038
H   66.452728   69.815643   71.951782
H    8.496548   95.997337    8.169265
H   27.234476   69.532074   64.029991
H   36.177704   61.511280   65.844414
H   94.565048   31.825073   46.619045
