100
TIME:    2.767, STEP:  2767
H   30.200939   68.273338   96.612747
H   24.301170   54.768234   52.541492
H   27.317015   72.973206   90.857567
H   81.941040   18.649908   88.494446
H   70.387283   94.544769   90.680573
H   85.112434   98.210396   52.771679
H    7.952617   48.179466    6.835930
H    2.405556   27.982714   54.137966
H   85.609795   20.257751   25.913849
H   99.227150   56.113380   16.041651
H   42.875427   77.578857   73.217392
H   50.233376   62.386078   95.971443
H   67.252205   94.299881   50.111259
H   18.075356   96.547188   67.811028
H   14.157299   22.867579   17.764681
H   90.268814   69.717133    3.355928
H    1.601379   64.984787   25.279276
H   60.274391   60.141441    3.616795
H   88.362831   94.431183    9.139765
H   17.971916   47.053562    4.722849
H    0.079020   80.753937   82.141220
H   27.655334   47.757217   83.642685
H   48.800591   72.118385   53.183563
H   61.957230   69.867523    1.571387
H   30.619404   66.723846   56.976982
H   33.971554   45.160892   29.820894
H   23.476948   27.455637   54.874523
H   99.071037   85.593925   58.236057
H   71.336426    0.136205   26.374166
H    7.092948   22.357071    3.357553
H   24.953371   70.177017   90.462715
H   40.467171   76.061226   43.109001
H   65.262543   66.035393   47.070168
H   95.013008   20.143600   55.181427
H   11.990943   49.756195   93.220161
H   13.134149    1.846528   11.128240
H   45.190102    3.201455   26.493956
H   49.624916    8.310078   17.701534
H   28.276588   21.128309   76.169495
H    2.573335   53.146538   55.736843
H   46.146351   51.124569    7.535441
H   82.938957   36.042870   32.796539
H   35.074627   80.092819    1.337428
H    2.668016   59.147385   51.276100
H   16.639212   22.720066   92.890236
H   42.389484   15.693073   94.404610
H   63.351223   75.316376   52.020401
H   56.387188   23.872168   39.784187
H   45.910652    3.287368   34.096954
H   83.915398   72.860466   90.137360
H   43.333515    2.507150   82.591644
H   39.603092    6.981881   92.412895
H   66.277519   38.052734   42.166649
H   12.617603   62.064636   53.916229
H   20.479088    1.074656   23.884413
H   97.028366    9.623966   98.431595
H   71.666527    9.706332   19.152306
H   20.019867   15.578477   42.284866
H    8.504936   55.681454   99.058754
H   76.424713   40.469204   84.910530
H   34.245644   49.892643   98.659470
H    0.708289    2.187675   70.158035
H   61.917850   18.464567   43.731369
H   33.043976   56.846291   52.018780
H   42.149433   39.848370   53.247086
H   31.363899    4.717143    9.791670
H   65.566933   44.024395    0.652280
H   89.230034   75.784668   98.481201
H   94.808189   50.967354   86.691017
H   86.443909   87.315010   95.906616
H   34.168602    7.132697   28.957455
H   45.815041   59.693771   59.209587
H   26.578402   81.438988   90.800041
H   69.299034   74.279114   38.757515
H   95.580345   32.582371   11.155113
H   91.070442   84.911736    9.746088
H   18.180273   86.721817   39.985584
H   61.979015   69.794441   67.252502
H   94.201248   45.391178   48.552345
H   63.826454   58.258579   82.541733
H   65.029861   57.907543   45.365513
H   48.935692   62.298172   55.402809
H   92.867905   53.442535   93.443054
H   40.515453   48.937347   10.694885
H   17.599289   75.807632   79.522865
H   87.608032   10.690109   33.932201
H   51.956398    2.169482   55.484573
H    0.498282   83.761795   66.968422
H   13.105543   40.109596    5.562204
H   21.698257   95.432083   23.131874
H   37.259674   22.842243   91.895706
H   83.021057    3.601174   86.247108
H   62.820057   10.542885   32.978401
H   14.668350   81.072273   13.383653
H    8.750046    1.877796   79.669884
H   22.464478   86.465889   24.530014
H   42.970627   26.472820   78.056770
H   17.024076   39.797028   11.761953
H   76.900017   48.777744   13.272186
H   11.081345    7.630534   31.184324
