100
TIME:    6.079, STEP:  6079
H    6.224728   64.546898   93.580521
H   32.587074   34.276112   61.407253
H   84.256058   11.251761   51.986721
H   82.496948   82.195038    6.951501
H   40.722000   60.016083    0.879490
H   33.751850   94.622261   80.770378
H   34.370121   71.821739   65.838799
H   42.088882   14.513215   50.040867
H    4.194511    1.822239   17.435156
H    8.721365    3.669076   45.735172
H   34.801254   10.844244   54.188866
H   23.822021   28.399281   60.219093
H   56.153275   93.980751   20.981621
H   54.084923   86.338692   19.854328
H   54.440971   27.026505   58.561878
H   57.100632   80.037392   28.431202
H   35.270180   84.049278   26.783697
H   31.063536   99.035110   88.795937
H   39.949024   33.375046   83.627304
H   28.738464   76.717079   30.219172
H    3.540234   51.034283   92.249214
H   45.179993   52.153946    1.595290
H    4.579233   45.182106   58.423279
H   54.231838    9.550753   55.594776
H   12.164784    4.063873   81.434669
H   18.834810   46.949715   18.775944
H   37.879845   89.780045   20.583029
H   19.613693   40.186867   67.714615
H   43.353127    0.626756   69.814636
H   34.088230   40.384666   66.651657
H   55.303818   67.170357   28.427803
H   49.588963   84.555374   36.500557
H   98.553093   23.713530   45.441284
H   34.954613   16.618523   15.652704
H   29.664467   99.393318   94.897064
H    1.075057   61.562157    0.313853
H   62.853279   81.908813   87.466835
H   12.737185   47.706211   51.418835
H   88.475433   48.965019   55.211906
H   90.619614   43.087841   16.317102
H   19.794964   64.765617   85.564308
H   87.908890   65.441940   90.303368
H   63.602825   99.953903   40.566551
H   91.179413   14.678671   75.107750
H   29.347862   92.046402   76.306625
H   99.656853   78.864456    7.857806
H   89.226852   55.434891   83.817757
H   56.564068   57.981705   44.711979
H   42.724129   28.987114    1.979132
H   53.372791   23.257620   58.489662
H   43.084179   82.755081   17.509350
H    0.561230   99.653275   74.987556
H   34.969112   57.256836   49.810749
H   35.915680    8.016131    0.066792
H   56.776054   91.339264   52.053997
H    1.167146    6.139205   85.683289
H   81.633766   14.139960   34.151024
H   73.400787    2.800683   56.974594
H   69.713699   95.621223   44.797127
H   57.866310   95.039581   90.709373
H   43.168964   95.870865   40.428905
H   83.162331   71.359604   20.297882
H   86.763924   92.462685   16.615173
H   60.474876   74.878006   62.098110
H   73.610062   75.325211   61.679874
H   27.903477   40.067894    5.621429
H   99.838455   58.527027   60.556473
H   60.447655   65.201820   56.813953
H   59.880360   12.988152   78.968842
H   53.542961   53.899277   88.932495
H   28.997631   81.785706   89.226601
H   72.725052   49.774857    1.697288
H   10.628830   17.614708    5.880402
H   96.388771   64.677757   41.959526
H   55.262852   37.307590   62.227554
H   69.372032   97.179253   86.889801
H   18.888397   99.658302   98.558098
H   17.582806   53.230286   50.161163
H   53.021801   35.662785   85.505531
H    1.405639   77.867561   97.209984
H   29.828875   92.171707   43.316242
H   97.458649   83.893967   78.432518
H    2.384141    8.781133    8.876158
H   68.374031   32.352684    8.194932
H   56.332497   68.641319   58.461502
H   11.380627   32.345184   63.927414
H   73.157387   61.359962   13.413687
H   53.796043   18.625582   32.548012
H   81.839218   55.703041   78.472420
H   28.873140   59.171268   41.526451
H   72.800377    1.680882   61.839153
H   28.083338   52.678040   49.353897
H   75.129135    9.918523   89.102982
H   34.779446   81.979073   36.696579
H   51.489983    5.209095   55.774784
H   96.022034   55.678314   53.460724
H   80.080070   16.541784   87.580276
H   26.543451   87.247437   56.843872
H   19.123322   63.054478   35.857384
H   16.801882   22.638268   12.130704
