100
TIME:    9.525, STEP:  9525
H   73.185211   48.533607   90.425613
H   37.418259   21.009335   78.687309
H   43.496868   59.170448   11.530962
H   83.075348   40.221245   18.064470
H    9.847059   36.227737    7.444580
H   80.314087   90.888954   22.038189
H   53.763706    4.510707   35.320583
H   71.240082   12.636015   33.639923
H   19.485191   70.502014    0.521960
H   14.596331   53.149891   80.663002
H   14.262726   49.500046   22.251036
H   92.297447    1.129797   14.929222
H   36.372101   85.452950   78.538971
H   83.460754   75.717171   82.096916
H   96.296638   19.212868   92.843773
H   18.543446   78.637558   42.382874
H   58.163185   11.976240   40.486679
H    4.753485   31.352272   69.341385
H   93.623245   77.939407   65.173904
H   35.895123    3.539843   64.838890
H   99.049225    7.973614   98.718613
H   75.551376   56.728561    8.136505
H   58.569725   17.162977   59.829224
H   34.047787   50.774872   99.664337
H   88.916367   30.780403    6.880893
H    2.694011   45.306503   94.536797
H   40.727623   46.534649   88.956039
H   28.850115    1.034510   81.618767
H   18.283306   13.274691    6.920697
H   66.223824   55.095779   40.598396
H   90.923973   76.180450   55.791412
H   67.171646   89.346603   17.487083
H   41.285912   71.588150   55.884178
H   80.555756    0.813366   70.478416
H   43.904900   38.493813    4.560690
H    0.629826   31.471968   89.481850
H   93.370605   55.709236   58.998066
H   70.304420   84.642326   94.594627
H   43.019421   73.883812   21.269039
H   66.043976   20.484024   87.441971
H   84.285492   83.008011   66.749352
H   97.498619   78.955460   66.227440
H   93.259308   20.626816   89.473595
H   71.147011   72.526100   12.037967
H   30.433043   56.097691   71.194046
H   55.177879   44.585613   21.857706
H   16.159855   42.842304   16.901560
H   56.768978   93.474411   57.930195
H   43.454185   43.589321   64.520172
H   25.713049   75.715904   17.544571
H   44.318363   50.177589   51.578491
H   68.044037   79.890137   48.779213
H    6.440144   77.237915   49.676125
H   56.110970   51.797668   52.127815
H   82.399971   93.330032   81.352768
H    5.459135    2.514348   68.373306
H    0.096612   14.706846   61.894218
H   16.804918   77.368248   68.212914
H   41.496029   41.235756   80.251472
H   30.467129   59.912449   92.696938
H   60.548443   35.614765   71.757210
H   60.857048   39.284714   64.381264
H   20.712513   57.314232   80.312622
H   97.104187   93.649704   68.538513
H   10.385737    0.096276   82.590202
H   16.213848   68.757652    9.376977
H   23.360107   77.664886   26.929665
H   22.409027   62.282417   21.552689
H   31.626757   65.380585   62.842907
H   23.472778   27.060656   81.641251
H   19.563030   47.317181   47.897316
H   88.906609   35.333397   54.223583
H   85.944290   47.164059   17.527363
H   20.528324   46.582401   37.209908
H   21.299425   42.340298   23.493368
H   50.836578   18.035519   55.016754
H   31.856384    1.386519   59.673058
H   79.473854   27.912086   40.480629
H   18.272566   25.540791   23.956499
H   32.409843   90.146950    0.334075
H   97.283318   27.822855   49.279701
H   56.043373    6.247787   90.142357
H   20.350405   66.409950   37.056118
H    5.454350   27.234360   93.456230
H   88.543304   53.073158   24.411905
H   32.073261   58.925041    3.228022
H    3.308075   10.806939   77.731895
H    9.216537   42.876930   96.820969
H   53.355961   63.835457   50.288582
H   24.200651   17.391151   64.709885
H   13.825481   87.752563   34.612694
H   83.052444   11.850677   15.016976
H   96.024490   13.311399   55.587456
H   66.347328   90.931320   71.313316
H   91.908173   96.537483   34.958961
H   80.647522   19.600321   75.470200
H    6.552930   14.298787   89.396332
H   19.891855   57.756077   87.661766
H   54.963951   77.933449   47.219547
H   30.845856   34.208218   80.166733
