200
TIME:    0.618, STEP:   618
H   21.086309   61.220493   21.803143
H   31.333414   38.396530    5.242649
H   10.215131   85.683151   63.966728
H   30.584347   81.391914   34.615089
H   11.196820   93.309601   48.223770
H   77.321594   42.555481   54.361099
H    8.835769   55.035927   56.967846
H   11.359395    5.208884   11.655051
H    2.779372   81.839340   38.498112
H   97.554916   69.604027   81.162636
H   25.368929    2.668997    4.906823
H   32.340881   52.112206   30.753088
H   20.451717   99.552895   45.799309
H   86.537498   54.801739   60.480587
H    1.371996   74.854454   42.048531
H   18.282406   10.391804   46.168747
H    1.989455   25.422108   97.079445
H   27.586361    1.338638   36.790760
H   77.602158   16.017036   48.048340
H   91.258842   74.513634   22.817570
H   62.621468   95.627686    8.522743
H   81.613777   63.262764   56.008057
H   83.685860   59.793091   40.066307
H   16.614689   91.505455   90.400795
H   19.676331   27.906584   31.922298
H   18.348188   79.111847   94.472099
H    6.215926   66.381447   64.280075
H    3.185375   85.722740    1.725899
H   26.989223   45.040230   36.124962
H   75.968018   30.890478   85.550247
H   12.867983   67.241554   16.656960
H   25.052250   72.365707    2.909649
H   17.989952   17.119200   77.796295
H   83.916145   63.990318   44.897339
H   29.848551   74.181747   31.343664
H   20.713791   41.303383   83.810997
H   97.113739   66.270416   88.792702
H   14.217719   54.533215   98.171890
H   39.080399   32.864979   52.833908
H   86.457672   38.134060   48.930756
H   80.616783   87.565796   14.071004
H   32.153946   35.180458   28.622601
H   69.895828   79.098473   64.364281
H   36.439163   81.592873   32.267376
H   41.692421   87.827911   58.004814
H   35.740417    4.001116   46.798893
H   87.097412    7.692987    4.466681
H   80.913261   65.544838   34.058670
H    1.698934   14.407629   61.438862
H   48.590412   19.507338   89.720810
H   69.216202   65.711708   12.888331
H    6.688513   42.204082   71.668587
H   62.371529   83.610634   12.869099
H   16.780804   90.160599   87.300835
H   61.198959   67.978333   78.548454
H    0.459963   63.037758   91.025970
H    4.351721   18.175880   45.599812
H   71.538437   67.366669   98.480797
H   20.204985   81.779526   16.268833
H   34.360714   93.866615   60.006516
H   49.195297    8.001524   31.192513
H   96.730034   17.320337   51.963860
H   81.861115   33.036911   72.132263
H   33.284721   65.691628   12.107178
H   77.424774   81.714233   33.386707
H   23.911676   31.246721   39.657791
H   72.055519   15.188657   93.644753
H   95.224632   92.309334   94.755302
H   29.968000   10.961375   57.195396
H   43.061054   48.218281   50.962406
H   58.299339   83.129959   83.392334
H   21.516891   13.886115   42.118839
H   89.490860   32.198040   86.838272
H   20.180147    0.655992   71.577187
H   83.747757    6.990519   49.839172
H   62.868156    5.731551   60.407402
H   93.829895   44.022240   66.798805
H   12.554663   12.853113   35.041847
H   14.404377   46.534122   26.566463
H   62.580006   88.558807   76.335236
H   59.411297   23.713465   95.521790
H   43.257648   61.792400   76.171623
H    9.524953   17.812643   79.219917
H   12.347509   74.220039    6.171352
H   25.447563    3.321033   47.069908
H   35.316551   72.548706   19.914070
H   52.796753    3.571777    2.637927
H   72.188026    4.475609   25.699524
H   77.255630   72.977264   78.532104
H   21.550842    2.990323   50.706905
H   25.397472   38.155941   79.073166
H   81.422417   91.851959    6.615696
H   65.216461   12.598957   84.964188
H   43.077679   80.853310   79.483864
H   34.702888   51.813026   83.683052
H   53.618202   36.160599   11.288929
H   84.433189    1.204887   14.608650
H   96.503487   34.312233   52.172504
H   28.452690   65.991455   54.220825
H   73.776863    4.069507   27.342691
H   26.731230   90.877686   86.739296
H    4.628138   82.375366   63.779533
H   31.014982   23.355566   35.784931
H   40.039177   68.637390    5.173392
H   24.837660   22.505196   37.342716
H    2.387855    8.266104   26.193411
H   83.564507   34.790348   54.500046
H   62.523861   48.787659    4.124978
H   82.402870   35.318222   17.410816
H   16.509439   22.790041    7.387293
H   52.167847   92.782005    1.061801
H    1.171905   72.850769   94.816841
H   50.528816   84.661087   85.713341
H   61.943718   11.248135   65.206360
H   51.236031   97.708954   13.518857
H   98.612144   94.739662   95.986954
H   17.033543   13.765328   88.586716
H   38.853313   45.602032   26.422661
H   33.217667   71.905334   64.857681
H   80.758080   54.219173   63.443642
H   44.499763   24.271320   75.133430
H    1.979204   18.525486   59.307083
H   41.349556    5.880077   35.242725
H   98.508163   53.716507    1.312026
H   65.605675   99.592995   80.311378
H   61.570889   72.694366   18.232927
H   85.990852   50.954880   56.456406
H   67.160500   90.534630   38.195065
H   97.119469   38.800953   76.276024
H   86.066681   22.357716   72.941383
H   63.867729   71.688995   17.856853
H   67.191048   89.800461   18.241154
H   91.203438    0.985396    0.187027
H   82.385666   22.694523   54.359432
H   23.099598   94.535278   39.047089
H   52.290344    1.141722   78.112770
H   69.518524   87.527748   74.156181
H   94.442558   52.418545   77.225792
H   56.193512   49.619843   71.460686
H   43.652702   90.961113   84.954285
H   69.331360   51.952629   27.120392
H   39.836777   52.496002   55.058681
H   42.854141   63.718426   86.634476
H   40.392311   12.844748   84.388283
H   58.069714   57.230713   61.428989
H   59.790115   68.488052   11.742416
H   53.671379   95.122429   44.575344
H   32.330925   59.348091   66.656273
H   75.290497   49.010147   94.186722
H   21.511486   92.801674   75.851349
H   62.896675   67.729538   48.490566
H   49.699348   96.650337   36.306664
H   93.735886   17.704540   90.195374
H   19.902142    9.819210   66.611534
H   28.601665   63.861698   67.591652
H   74.723396   44.466175   65.690536
H   63.267986   72.219849   85.231613
H   51.420235   30.595032   18.579903
H   95.081398    0.310050   88.586418
H   59.441769   41.520660   92.747147
H   57.668983   69.052559   73.365456
H   25.856268   21.097404   32.269295
H   81.490379   18.089226   37.074879
H   25.149775   31.284161   55.026619
H   55.334877   34.914558   13.538662
H   18.426289   52.411945   60.235500
H   68.390846   91.453072   56.228893
H   23.962421   48.130768   63.643513
H   99.209206   26.940943   35.964363
H   43.723068    7.607165   86.146698
H   72.143677   10.129115   35.944351
H   33.104591   51.406937   58.618889
H   44.976448   61.211803   79.788162
H   66.571304   65.496590   83.009247
H   53.869080   92.193008   81.457878
H   12.577867   49.702660   23.649397
H   31.534557   64.729416    2.720215
H    5.080144    9.561348   69.713638
H   65.934700   12.592147   64.713806
H   68.319344   58.509880   91.717354
H   74.516617   98.735146   32.930580
H   26.852007   30.567471   83.415680
H   48.230762   89.769089   13.555634
H   59.712761   25.919834   91.096504
H   90.411194   71.939346   76.839523
H    7.173716   39.413376   85.846046
H   44.514160   98.049858    7.640726
H   72.261063   83.236031   38.753250
H   95.671486   62.859051   70.863510
H   56.487373   56.217083   70.478775
H   65.877731   18.518265   76.602119
H   44.554153   95.201691   19.809698
H   12.496701   26.516781   66.465569
H   28.499792   78.616867   40.931133
H   71.922775   37.371479   20.579807
H   76.250992   11.310984   24.387589
H   11.973887   95.866508   16.225203
H   17.923952   89.893593   36.306335
H    6.872594   12.669569   61.111580
H    4.065249   22.186180   92.497192
