100
TIME:    9.762, STEP:  9762
H   57.157623   26.799664   90.208633
H   30.872852   33.852741   93.629997
H   47.570667   76.221458    8.748646
H   83.115128   30.457003    5.073369
H    7.723368   55.224335    1.018817
H   76.639893   90.632195   45.509613
H   41.343410   20.514788   53.854290
H   52.612350   33.138889   11.878725
H   13.659279   47.715500   85.604546
H    8.122190   56.552860   89.942513
H   92.217499   59.036316   99.421928
H   83.252998   13.008976   98.059731
H   21.259445   71.106956   54.986488
H   71.725754   74.986671    0.131576
H   99.175240   98.042877   81.445091
H    9.013504   57.908737   22.709595
H   39.105110   27.651352   62.061722
H    9.821776   19.819786   61.125710
H   97.315521   87.880707   77.667068
H   29.510487   98.506561   80.974968
H   84.985306   84.380196   92.285156
H   98.272797   57.043182   87.953827
H   55.405434   15.236197   53.048599
H   12.026947   53.610077   82.063644
H   80.439682   11.984512    8.630295
H    1.575999   38.319748   72.234871
H   20.290436   36.681950   93.657272
H    8.852859   12.096868   89.451744
H   23.436581   34.776676   95.717728
H   75.311668   49.230087   59.439491
H    0.250530   97.433640   37.040726
H   82.136032   82.797424   95.546867
H   57.980713   54.247833   77.235008
H   90.569382   79.093681   60.493721
H   38.006660   20.549568   18.980513
H   21.231173   50.036388   88.736885
H   16.102158   47.030037   77.672806
H   60.508419   80.306343   11.319053
H   33.014835   68.719688   98.302528
H   43.721996   98.296478    6.088078
H   68.087936   91.141144   72.332970
H   77.525475   79.887711   78.321526
H   95.298920   22.048939    6.592794
H   56.015316   76.504066   35.209621
H    9.860876   46.724827   91.466461
H   52.120270   49.106030   22.820555
H   18.013226   55.732723   19.177137
H   56.783443   95.915436   72.594421
H   50.381271   23.961674   55.065369
H   30.687315   79.325005    0.973315
H   45.638325   27.396500   52.023300
H   79.562057   57.898712   33.221748
H   11.356096   78.612122   35.910553
H   50.623184   47.930000   62.586250
H   63.529945   14.099547   83.367065
H    5.754318    2.265047   60.305267
H   15.121090    7.867913   84.434822
H   99.157669   54.986763   62.108543
H   60.188854   51.251190   62.057507
H   14.828262   78.128326   85.956093
H   75.498779   24.593382   53.280315
H   52.445457   37.078751   53.657089
H   36.817104   41.164818   64.071487
H   13.378685   94.940735   62.104523
H   19.792725   81.168373    4.660821
H    1.655046   56.975639   23.390482
H    4.344524   85.859497   38.372143
H    6.037612   75.836433   32.882660
H   43.439507   48.351273   47.977970
H   28.286118   38.963818   81.138580
H   12.036299   31.190144   45.054878
H   69.389259   27.464256   71.595428
H   70.491699   35.441715   11.450115
H   15.311764   31.583633   23.128477
H   32.715340   42.689274   41.462925
H   56.440086   33.225094   39.070534
H   53.380806   80.874557   63.877045
H   90.608543   12.416100   53.569946
H   29.636892   24.844646   26.601847
H   20.787823   77.236641   79.916267
H    1.922904   30.274729   63.444878
H   73.827690    7.786310   70.314003
H   35.341209   70.373451   59.627460
H   21.759491   47.514969   71.808861
H   77.003586   38.248001    1.437960
H   26.618023   67.630608   19.686298
H   19.136827   93.574913   89.032936
H   13.027700   23.912493   94.365479
H   58.274174   50.639458   48.350227
H    3.246442    7.639709   73.182953
H   23.524588    0.550706   39.617699
H    0.588044   29.674784   19.531969
H   11.216485   20.422918   73.915031
H   87.915138    5.208873   89.347969
H   87.810867   75.309608   40.405159
H    0.222734   10.241877   63.228912
H   87.740929   27.898968   75.766373
H   19.434389   69.482880   82.902672
H   43.673759   78.956871   27.367687
H   45.566139   28.126778   57.336292
