100
TIME:    3.443, STEP:  3443
H   84.486481    6.280725   95.993851
H    5.496397   91.418518   95.183456
H   38.936798   21.607033   82.925377
H   82.054504   90.797844   51.441425
H   64.332413   48.729137   72.350922
H   74.632454   97.478035   19.717577
H   72.521523   93.824867   59.700020
H   49.273285   86.465256   92.068794
H   68.992424   55.263000   83.362663
H   80.753090   65.819740   42.514946
H   79.995560    4.779207    8.102648
H   24.430550   96.270660   47.852242
H   24.253517   53.401138   82.922600
H   84.603981   94.463570   19.253544
H   22.380886   62.484634   85.270699
H   63.088943   10.591770   47.242531
H   47.241615    9.699201   86.818222
H   74.716637   27.267723   80.180847
H   98.894386   22.790926   44.752102
H   99.760826   32.700321   50.748070
H   59.964218   13.455383   63.791000
H   92.464111   48.654617   26.074997
H   39.775017   66.620522   33.843048
H   99.149467   77.975067   51.367130
H    6.443250   13.111679   61.967140
H   30.870974   25.020075   66.457695
H   65.186157   99.354630   68.287453
H   42.031399   17.147293   80.579552
H   86.035217   61.467819   94.420479
H   33.012360    5.625436   57.097076
H   51.560078   30.796286   36.979744
H   83.150398   57.382698   80.528313
H   12.877352   16.576054    7.969586
H   23.576496   58.192329   26.702354
H   95.186737   98.655571   34.382797
H   71.912056   54.951603    8.802293
H   10.027852   78.445297   79.760307
H   21.686897   95.939384   65.403130
H   99.740936    6.401152   10.660143
H   38.901356   89.861023    8.921923
H   99.947693   74.320007   23.461287
H   22.183952   66.383865   64.556244
H   40.897411   84.146591   50.164570
H   59.500107   70.475403   17.372576
H   58.000034   96.049286   50.737850
H   33.668201   28.586750   97.148384
H   68.633102   12.079560   58.513657
H   56.423290   30.832174   81.611275
H   65.669357   47.299690    7.130494
H   98.088127   83.144463   42.855976
H   43.281940   37.244431   89.719269
H   72.456177   44.254738   48.036160
H   80.295525   41.972412    2.904727
H   96.963676   51.032806   83.747040
H   66.656479   60.320328   29.631201
H   97.874191    8.912848   75.418961
H   14.523791   90.200203   83.445335
H   69.683342   51.738907   24.872189
H   61.817711   84.243530   47.162609
H   31.816315   92.427902   65.683479
H   76.887611   18.457325   45.951885
H   76.715813   95.895126   39.570114
H    7.805127   72.338921   97.373619
H   79.464653   60.523567   33.663342
H   68.982796   85.857399   16.200712
H   89.836342   71.111122   49.760834
H   11.329987   67.393646   33.291119
H   42.534294   14.445930   30.797911
H   28.500656    2.394305   44.294209
H    0.142121   21.315134   94.483154
H   12.701088   61.138145   20.847332
H   90.076157   37.258774    8.701648
H   82.501190   48.000416   73.470940
H   54.420300   31.499161   98.583305
H   28.172857   33.546818   62.400791
H    7.050200   28.236284   64.257935
H   79.557442   28.129963   51.940601
H   93.738724   25.590811    4.582789
H   26.617392   43.405552   56.097725
H   30.674232   21.440136   24.303574
H   78.253616   64.901077   85.769135
H   99.655792   66.712967   98.875488
H   35.637486   64.727081   57.828617
H   87.022919    6.783695   48.951424
H   84.683441   33.522968   13.992083
H   72.053101   35.521118   80.875504
H   97.104897   53.018776   87.718765
H   11.377966   29.639297   59.936615
H   27.136177    2.471948    0.031516
H   61.932041   67.623001   47.295570
H   64.924347   59.342312    6.171670
H   33.040375   54.438049   99.130470
H    6.157517   30.824133   85.256920
H   80.007057   22.075645   58.961273
H   97.061699   41.327015   95.204185
H   78.299255   59.770821   89.613350
H   89.313477   65.267311   39.179756
H   19.504820   45.552765    0.945432
H   44.696770   51.691715   56.650398
H   53.067867   90.281044   66.065521
