100
TIME:    5.434, STEP:  5434
H   49.842934   23.696095   94.171036
H   50.400948   99.323059   20.736206
H   73.164215   64.847687   59.560078
H   82.388687    8.769020   42.307167
H   46.499207    8.316484   18.367138
H   43.756161   95.321037   16.893278
H   68.172798   28.267208   15.398957
H   92.784607   58.711025    9.261436
H   20.049843   63.836441   58.037109
H   26.342855   94.407555   20.478682
H   94.797592   84.891464   16.319458
H   48.441582   96.069176    6.131374
H   97.312180   32.986305   85.072197
H   86.021950   88.326759   70.770714
H   46.596962   84.640884   89.564789
H   83.034088   36.451614   81.971405
H   87.137093   41.387165   68.066803
H   17.270086   30.418587   11.155565
H   29.904831    6.314731   49.645237
H   46.114372   90.417030   86.304634
H   41.815453   15.245071    9.756599
H   83.343216   51.297699   56.522980
H   13.191897   50.427849   76.876877
H   14.160686    1.834688    3.496494
H   35.232330   55.217247   76.671181
H   21.775084   66.017914   79.428558
H   93.498840   16.591545    7.784393
H   74.036049   10.080437   46.392952
H   29.328392   42.106724    0.304880
H    9.357412   56.348259   15.376057
H   29.916790    9.333226   79.458153
H    8.863317    2.378510   96.211479
H   53.121616   70.905098   87.334587
H    7.700521   75.729088   42.824760
H   45.697311   48.151413   55.619705
H   45.005680   11.042685    2.342313
H    0.990736    5.529942   36.643169
H   39.394627   59.511593    5.904636
H   15.700450   63.019279   17.717299
H   51.370892    3.469933   65.571373
H   63.876236   42.635895   70.368385
H   43.243523   55.739868   58.089512
H   58.047062   96.086029   93.977821
H   32.364361    3.852324   12.044082
H   85.296242   17.494957   21.112654
H    7.980278   66.562057    5.237395
H   84.187790   20.357475   77.627190
H   56.529621   51.338409    4.803050
H   23.871933   82.405823   27.709015
H   39.845074   13.440306    3.604046
H   43.130039   45.026108   10.710088
H   69.214760   59.505642   17.329414
H   21.589024   53.516907   87.270958
H   50.850792   18.541130   71.603966
H    8.131485   34.814579   46.567127
H    0.363745    6.817682    7.640625
H   40.743393   32.751152   72.806038
H   21.428658   63.713448   73.587753
H   18.845190   68.368950   94.311821
H    0.431858   45.463993    9.054695
H    2.481094   25.866253   90.718803
H    6.054091   77.363174   49.484093
H   42.974865   36.477097   60.844757
H   16.182198   71.364441   79.607422
H   48.008156   26.839195    1.613399
H   67.526787   72.132866   67.483818
H   51.588715   36.230160   29.416435
H    5.002160   28.314058   25.979223
H   27.731733   59.333748   19.421028
H   40.477814   21.456192   90.290680
H   49.479027   25.671265   96.962349
H   25.909279   71.181030   54.474670
H   52.684601   49.517288   22.419746
H   10.587078    5.501632   80.283958
H   24.166689   36.387371   13.331963
H   54.123711   55.842224   30.290579
H   60.327808   55.563900   87.151314
H   87.279526   95.404167   14.538390
H   22.093571   37.557354   78.311089
H   33.033669   13.002761   52.777252
H   17.206614   85.498886    4.766826
H   49.047768   79.711151   32.387100
H   61.588844   97.995056   47.450871
H   24.000807   77.158127   67.104156
H   87.738060    8.984200   20.986916
H   26.227161    8.653190   19.136841
H   30.079306    8.256836   82.657562
H   43.422661   70.240295   39.235596
H   68.454208   91.616203   83.747688
H   85.900116   85.705978   18.470312
H   46.404350   66.850464   48.217937
H   80.359871    4.168382   37.066261
H   33.783234   90.566841   39.224140
H   72.442451   42.847607   93.205482
H   62.640877   62.986050   40.952854
H   42.747726   81.149200   86.775620
H   31.276609   79.526894   24.675003
H   26.811270   62.504944   69.076881
H   49.849792   60.274136   89.882240
H   76.737030   39.188847   74.266769
