100
TIME:    8.081, STEP:  8081
H   70.837151   80.955009   91.747635
H   77.299240   42.762180   87.638199
H   18.675913   55.283264   28.481106
H   82.832977   99.712212   97.214912
H   22.786345   20.485035   46.595596
H    2.701346   92.453346   79.034950
H   29.445366    7.004710   22.397892
H   84.735626   87.711235   66.224159
H   54.981468    9.337581   91.416809
H   54.039070   32.416187   24.123783
H   48.580093   91.399323   61.345810
H   47.413185   28.749172   17.714626
H   28.451286   72.853027   22.039743
H   54.958229   80.167976   72.208504
H   78.757820   48.198074   62.284241
H   76.603500    4.935122   62.247345
H   74.281044   16.466793    9.033666
H   73.873169    1.617674   19.399094
H   71.126846   17.360310   89.100723
H   74.798660   34.204838   66.524666
H   84.738731   51.728855   37.911488
H   37.113682   54.811630   31.106461
H   77.849205   28.901426    1.142476
H   68.217361   33.500458    6.908014
H   40.560738   45.297058   96.219948
H    9.504803   87.875595   30.424030
H   65.246338    6.558424   60.310825
H   50.689888   33.633457   33.886841
H   86.884163   82.263687   75.179070
H   10.855003   90.834427   25.804619
H   34.093288   46.694275   70.036079
H   75.996605   29.242374   51.165413
H   39.571712   77.238121   25.797255
H   19.543339   33.147194   31.310747
H   79.841850   47.824913   16.705969
H   75.105316   18.367693   94.020790
H   54.871449    8.590944   45.216457
H   29.990215   11.064285   92.695610
H    3.969002    5.347006   61.203346
H    2.053950   55.667824   73.831604
H   82.972717   33.461029   32.729336
H   19.191414   73.292801   92.510002
H   80.832306   11.963350   85.172432
H   63.343456   48.281898   70.851959
H   55.688194   13.058737   47.623199
H   73.813164   17.046490   15.991236
H    4.870444   64.310432    3.034461
H   56.680843   78.601669   68.584038
H    1.248436   63.180565   22.119080
H   95.402588   53.731426   18.508564
H   42.946712   89.474815   38.612839
H   97.864685   13.881662   43.569641
H   76.494652   68.865112   33.540230
H   89.555511   75.357391   88.409134
H   97.373207   66.786026   69.080002
H    3.660635    4.033296   17.530487
H    8.553082   56.372643   24.557915
H   24.327711   13.736467    5.406255
H   27.605572   80.219734   91.107742
H   25.756447   48.921383   33.767723
H   69.456253    2.768461   84.337593
H   12.107460   52.725266   29.714306
H   22.679245   55.850250   79.332031
H   97.947136   85.783676    7.738345
H   53.072975   15.427942   48.117523
H    4.920231   40.542809   23.996143
H   39.215118   27.744072   57.213055
H   22.155983   79.698112   52.521133
H   59.659706   69.137215   53.407555
H   94.145653   54.530689   84.703934
H   65.424324   45.570961   65.215797
H    7.817119   83.278709   48.379665
H   80.094604   18.593107   54.554981
H   52.311924   37.973293   23.007750
H   51.740738   40.214046   14.008387
H   16.695375   25.488716   52.179848
H    0.709698   26.369308   34.058891
H   11.639144   22.326458   60.724575
H   49.025444   29.782276    7.840248
H    3.225964   68.809044   24.735725
H   69.014091   12.884011   62.973251
H   47.687706   96.877045   10.948055
H   29.015379   42.261021   99.535919
H    6.109727    3.667566   25.342945
H   58.852814   43.405125   64.390694
H   65.310654    5.881640    2.952271
H    6.866562   15.797945    8.876610
H   85.993736   58.425369   11.790581
H   23.388557   44.234718   62.098640
H   51.870380   76.802628   13.093948
H   54.730518    9.782773    4.117888
H   76.211067    3.248182   87.502602
H    3.461263   69.989830   43.920715
H   28.263556    3.437801   71.688210
H   16.875652   25.882751    1.780061
H   61.379059   76.622314   50.054832
H   21.170557   31.430588   72.442909
H   22.679117   86.307381   16.654936
H   23.752647   71.697914   68.169823
H   41.152798   71.260025   19.271435
