100
TIME:    6.294, STEP:  6294
H   91.685135   44.830254   93.383682
H   26.649857   45.927303   74.963173
H   87.953339   26.719158   49.462269
H   82.533035   73.337311   95.166748
H   38.796265   77.249283   95.049866
H   30.417080   94.389336    2.061815
H   23.102116   86.338570   82.652077
H   25.190308   33.112835   30.299618
H   98.909340   81.150894    3.901330
H    2.848200    6.756363   54.153294
H   14.802475   19.495047   33.479828
H   15.615501   39.176182   44.914909
H   42.433640   80.979576   99.618095
H   43.439247   85.676003   36.216518
H   57.052925    7.821716   48.223492
H   48.456146   61.232765   10.583827
H   17.981209   98.270851   46.355995
H   35.661350   88.573151   81.342323
H   43.296917   42.395164   94.955353
H   22.946495   72.150429   44.857384
H   90.781845   29.629749   86.412956
H   65.792252   52.439362   83.286057
H    1.708391   43.433525   52.272079
H   34.254383   12.122774   39.626263
H    4.475375   87.013992   83.022499
H   17.854719   40.593475   98.558205
H   19.339870   80.843582   24.849501
H    1.472905   50.222343   74.820480
H   48.028038   20.132927   59.651215
H   42.332478   35.063469   83.743790
H   63.766228   86.450676   11.417686
H   63.164249   78.614136   16.596916
H   13.697634    7.983682   64.810181
H   44.038704   96.915268    6.595646
H   24.316010   83.125954    7.982163
H   19.764296   78.401680   99.637886
H   83.475288   74.035278    4.407971
H    3.851160   43.771084   66.590431
H   79.401184   44.280266   34.376564
H   70.368225   22.959846   33.232960
H    5.101758   72.143776   90.629616
H   69.789917   66.285065    1.280275
H   65.453461    1.243643   56.095459
H   77.449936   18.287374   96.130089
H   10.698246   83.562668   94.704453
H   96.881432   82.965256    8.731276
H   90.906540   67.127090   85.881279
H   56.575550   60.196136   58.014973
H   49.008194   11.181442   93.403275
H   57.884792   26.530767   43.455605
H   43.069416   61.998474   19.775452
H   11.010019   79.703568   60.874245
H   39.429142   58.503479   37.322994
H   30.937309    4.507897    9.553592
H   39.657677   10.180640   53.882954
H    1.434929    5.913046   78.364182
H   95.264824    7.935861   54.599251
H   57.391266   82.496712   51.436874
H   86.671326    4.705951   28.292229
H   43.679184   11.565228   84.594261
H   56.731129   85.871475   23.666477
H   75.531563   69.358414   10.569375
H    1.359577   77.791664    1.871979
H   75.238144   76.049194   56.260212
H   82.143005   58.153782   81.701622
H   14.696442   29.379570   18.334242
H   82.588852   65.959747   70.936417
H   45.596199   77.497658   67.092194
H   70.595558   97.539642   65.485413
H   57.898010   64.713799   88.479767
H   22.169800   67.157333   86.648018
H   54.997311   42.639465   17.438633
H   96.610123    6.980515    0.367354
H   91.654808   51.071224   29.184896
H   65.628288   37.614330   78.525772
H   74.453743   10.958706   72.422180
H   38.412685   81.039207    2.366543
H   27.683895   39.171104   62.035439
H   63.331211   35.031261   87.903679
H   90.861740   66.155678   78.687492
H   34.036293   94.395981   56.166508
H   13.594133   85.288376   60.447506
H   15.983949   12.376304   29.352127
H   83.166435   50.750511   88.557610
H   45.863976   55.192902   37.619598
H    6.431847   40.243324   78.857605
H   87.516747   45.727715   23.665686
H   57.253838    1.421087   30.318817
H   86.300888   43.731987   76.713997
H    9.864161   50.325024   49.211349
H   81.599052   13.290154   66.379562
H   43.991161   68.848312   53.449776
H   88.911102   16.369900    5.729259
H   55.557377   95.022896   51.193726
H   47.773018   85.951340   60.715427
H   13.780227   47.188019   42.355759
H   63.014183   28.879450   75.215546
H   26.128450   97.886551   52.528191
H    8.881450   63.981258   17.848312
H   30.155725   17.121052   91.419243
