100
TIME:    9.822, STEP:  9822
H   53.100006   21.297573   90.153702
H   29.215977   37.104237   97.412956
H   48.602009   80.538170    8.044262
H   83.125198   27.984850    1.784489
H    7.185724   60.033600   99.392006
H   75.709717   90.567192   51.451843
H   38.199032   24.566454   58.546368
H   47.896469   38.329472    6.369654
H   12.184364   41.946762   81.827995
H    6.483168   57.414371   92.291756
H   86.636444   61.450562   93.642204
H   80.963264   16.016369   93.788795
H   17.433456   67.475060   49.024117
H   68.754868   74.801735    4.697751
H   99.903999   92.683380   78.559349
H    6.600894   52.660934   17.728897
H   34.280281   31.619705   67.523758
H   11.104888   16.900169   59.046089
H   98.250275   90.397491   80.830215
H   27.894123   97.232147   85.060051
H   81.424820   78.407295   90.656433
H    4.025055   57.122833   82.844269
H   54.604347   14.748335   51.331985
H    6.452072   54.327850   77.607773
H   78.293686    7.226059    9.073181
H    1.292958   36.550949   66.588814
H   15.116562   34.187595   94.847458
H    3.790337   14.897466   91.434776
H   24.741207   40.220402   92.881424
H   77.612389   47.745102   64.209389
H    2.612016    2.814036   32.293716
H   85.924484   81.139404   89.992363
H   62.207245   49.857880   82.640282
H   93.104477   73.595024   57.965950
H   36.513435   16.006721   22.631178
H   26.446703   54.736248   88.548286
H   21.856934   44.832771   82.400589
H   58.028713   79.208626   15.552909
H   30.482029   67.412315   92.488014
H   38.070904   92.679718   10.808766
H   63.987289   93.200165   73.746544
H   72.469017   80.123917   81.383049
H   95.815277   22.408970   10.926558
H   52.184292   77.511147   41.075863
H    4.651488   44.349949   96.597992
H   51.346191   50.250439   23.064314
H   18.482433   58.996120   19.753233
H   56.787106   96.533417   76.306885
H   52.134964   18.992649   52.671722
H   31.946623   80.238701   96.778297
H   45.972492   21.629135   52.135910
H   82.478012   52.330933   29.282991
H   12.600641   78.960022   32.425598
H   49.233871   46.950844   65.233955
H   58.752724   19.357691   83.877014
H    5.829048    2.201933   58.262726
H   18.924675    6.136594   90.141304
H   94.689896   49.320564   60.563133
H   64.921211   53.786743   57.451031
H   10.868950   82.739838   84.249550
H   79.283569   21.803083   48.602428
H   50.315941   36.520279   50.942093
H   40.895321   37.078362   59.960770
H   17.498859   95.267578   60.475342
H   22.174240   76.376503   10.248433
H   97.969208   53.992851   26.938150
H   99.530495   87.934082   41.268871
H    1.892906   79.267830   35.751007
H   46.430077   44.040054   44.214695
H   29.504684   41.977276   81.011322
H   10.130743   27.107349   44.335274
H   64.448158   25.472069   75.993622
H   66.579651   32.474033    9.911572
H   13.991116   27.786255   19.563643
H   35.605659   42.777622   46.012180
H   57.858696   37.070766   35.033516
H   58.830025   75.681686   64.940941
H   93.427452    8.493065   56.883698
H   32.513939   24.668407   27.271555
H   17.845547   73.968208   74.747200
H    3.097412   30.895456   67.030998
H   78.330254    8.175836   65.294167
H   39.136528   71.376869   65.341614
H   25.887375   52.649246   66.328514
H   74.082138   34.494797   95.621643
H   25.236950   69.834282   23.852863
H   23.144091   89.212425   91.893959
H   13.992552   19.111238   93.743835
H   59.519291   47.298698   47.859505
H   97.941681    5.170990   75.328033
H   25.980032    3.790391   40.884789
H    5.027437   34.187302   20.675005
H   15.062501   22.223303   78.554924
H   93.375343    8.823560   93.913704
H   86.773575   69.935463   41.783943
H    5.178540    7.872610   60.129852
H   82.978355   31.342037   72.315750
H   19.318575   72.451935   81.697838
H   40.815483   79.215965   22.341900
H   49.292793   26.587090   51.556110
