100
TIME:    2.214, STEP:  2214
H   67.598541   18.986130   97.119034
H   39.683846   24.783918   17.658346
H   17.811483   33.187515   97.346474
H   81.848221   41.434044   18.805901
H   75.340454   50.219379    5.674692
H   93.685555   98.809502   98.005211
H   36.934765   10.836754   63.590538
H   45.870262   80.140808    4.911203
H   99.203590   73.426285   60.724903
H   14.337801   48.173119   94.386497
H   94.314148   55.327564   26.486120
H   71.339844   34.666885   35.333595
H    2.430495   27.757469    5.075778
H   45.457024   98.251686   25.726337
H    7.430060   72.263885   44.347816
H   12.504269   18.084724   49.260513
H   46.065155   28.412361   74.932495
H   48.456818   87.033699   22.790291
H   79.747520   71.234818   80.004181
H   32.869400   58.795193   67.072060
H   32.894730   35.806858   97.152618
H   74.638687   47.023102   30.735703
H   56.183937   76.615898   69.005020
H   13.336967   63.235172   42.643585
H   50.398186   10.584129   52.897156
H   36.507206   61.636303   81.653511
H   71.163918   50.444851   43.900761
H   45.730736   59.781750   39.954891
H   59.312119   49.963203   52.514977
H   85.888374   36.043686   59.395138
H    3.194598   20.586760   34.218021
H    5.550548   91.342644   94.303017
H   26.308449    6.495872   97.251556
H   71.647881   70.822891   78.479050
H   25.738426   91.558594   59.544220
H   65.053238   58.406490   13.028924
H   92.150543   23.455019   82.919922
H   72.481102   18.431591   78.676857
H   51.620621   33.176025   29.758825
H   54.658756    4.915532   12.226686
H   83.938652   32.151478   94.505417
H   32.639496   11.222371    6.817296
H   30.311316   76.776642   61.391777
H   37.979836   49.878120   97.207443
H   64.606377   44.536800   45.569313
H   49.523907    5.145435   92.160072
H   59.026691   45.242950   46.708611
H   56.357655   18.178553    5.567687
H   29.747450   49.085262   56.158394
H   72.321434   64.447670   28.814594
H   43.375706   55.896233   76.760910
H   12.729223   58.297230   28.716892
H   54.806747   34.846252   74.284966
H   25.422436   71.085884   29.513430
H   64.504883   52.596661   19.192823
H   96.336441   10.205141   17.257019
H   36.609478   25.663216   66.557259
H   61.197845   67.802597   56.528397
H   64.889137   32.316326   41.513420
H   12.918325   97.962433    0.639130
H   99.361038   75.609688   41.774509
H   20.333225    7.335978   95.177032
H   24.406658   56.175240   81.669113
H   95.070496   53.838104   67.033546
H   20.198822   84.015747    1.746316
H   65.335732   32.208443   77.094307
H    9.934969   24.907072   73.954056
H   27.429802   44.158630   72.044601
H   67.249321   90.702415   21.373787
H   75.238098   59.502319   97.071075
H   51.728310   44.759377   35.593060
H   91.412903   78.046661   18.720007
H   62.634766    8.793987    4.977482
H   81.466789    9.272676   71.623955
H   68.915916   31.793959   69.234116
H   77.999809   49.469940   46.955021
H   67.972687   34.651939   30.205427
H   35.998074    5.952151   36.711208
H   67.680267   47.015514   42.379868
H   90.946541   88.375000   30.183022
H   54.208385   52.186504   12.314571
H    7.441502   58.686661    1.643723
H   57.882763   44.211243   40.772373
H    2.472531    1.616428   61.205414
H   44.526428   10.396435   33.129883
H    0.332803   90.378426   95.530006
H   15.022787   42.377090   29.115477
H   91.596191   28.036194   72.723213
H    1.628348   70.900261   10.086370
H   70.591873   18.184601    3.364050
H   14.628662   92.981491   80.217361
H   42.102406   62.017673   75.707909
H   27.338081   93.972397   90.195999
H   61.220219   47.528713   76.096504
H   18.312534   51.413658   66.962090
H   76.788895    8.303303   53.093018
H   86.865677   94.737587    9.860239
H   14.994189   35.088562   20.610916
H    3.243668   46.393978   59.593193
H   76.738205   21.834591   84.445709
