200
TIME:    0.098, STEP:    98
H    5.107775   62.946262   12.911465
H   26.698633   30.804974   84.132545
H   21.113991   62.922836   38.353935
H   13.055972   75.314034   48.212959
H   16.717857   80.130280   55.700119
H   94.238098   56.669098   69.752922
H    1.301939   55.404884   46.902843
H   99.706505   82.754486   30.112728
H   81.661674   89.635056   51.183506
H   15.859890   76.887962    1.673392
H    7.244147   91.560738   88.474335
H   30.190613   38.232658    5.976220
H    7.688960   82.295204   67.111565
H   11.115726   52.607830   35.423214
H   26.477732   70.851463   43.327980
H   33.439419   31.817127   57.386246
H   77.527328    1.067992   22.326370
H   39.934181   76.340698   46.048420
H   60.300831   34.842648   40.393463
H   89.604485   81.654747   42.975346
H   56.380928   69.669739   32.346134
H   93.190315   43.386665   76.046814
H   99.257454   63.573914   52.543419
H    5.621078   86.797798   92.036674
H   97.074440    6.992827   50.477291
H   18.778639   56.034832   11.646475
H   96.146156   55.947483   43.372482
H   91.251495   64.271629    0.357634
H    5.087860   60.845894   39.169853
H   99.466248   16.960348    3.537777
H   13.546885   45.516697   16.021202
H   34.508274   60.178207   90.107079
H   30.554344    5.930017   71.444672
H    1.126361   63.422997   35.808289
H   54.802860   95.668564   35.299213
H   37.699722   53.159615   77.848167
H   82.188812   77.493866   84.888893
H   39.938961   41.082134   21.552036
H   58.325699   51.485432   41.275223
H   91.444550   40.272427   69.243256
H   80.462234   11.857603   96.810692
H    6.271396   46.084541   44.041672
H   79.258621   91.043968   45.055500
H   37.597610   56.337738   13.669749
H   23.925386   71.962738   39.239555
H   43.058075   17.534077   41.143528
H   77.298218   33.169067   93.065392
H   93.572868   65.552773   52.752518
H   81.588745   34.140865   61.063953
H   67.198624   17.160688   11.720116
H   81.586197   72.293434   33.496319
H   26.566362   33.253887   60.488152
H   48.347580   98.485970    6.070441
H   24.519985   79.187088   79.600334
H   83.209457   79.542969   95.365776
H    7.125994   75.848274   73.998383
H    5.835733   16.208107   51.177814
H   65.857285   55.278355    7.866364
H   31.177504   71.734360    3.692054
H   46.387539   96.786537   69.619247
H   50.879410   18.146864   46.385284
H   87.385345   16.088495   47.977932
H   67.535248   22.264837   89.675598
H   20.685513   64.949745    0.497076
H   69.065704   73.962158   12.122898
H   44.309868   11.044436   30.310867
H   91.479347   26.157246   82.901344
H   98.136620   91.127083   84.460197
H   11.471647    3.934321   63.777122
H   46.054371   39.155018   50.990177
H   58.527458   74.136124   69.483032
H   36.131100   27.554327   45.758823
H   72.986954   23.208172    4.250444
H    3.239215   12.085893   56.439014
H   77.415970   98.572762   74.289551
H   49.724541   24.089916   63.805382
H   96.027771   24.663874   74.154152
H   31.814751    3.384187   52.823219
H   10.450977   23.366793   38.083492
H   70.415756   91.458893    0.995903
H   37.341290   32.501938    3.241394
H   20.392704   71.143761   92.247063
H   11.553723   12.108680   94.434456
H   29.304678   57.216255   89.223358
H   43.964867   97.822296   61.806389
H   20.666584   90.742676   30.738808
H   29.490938    2.488213    1.445787
H   76.512367   23.829313    6.086283
H   61.344353   71.697487   76.649559
H   24.155365   79.682335   56.427731
H   47.195206   33.666958   81.386093
H   85.044548   87.289581   95.269394
H   40.514065   18.463596   99.774063
H   66.395599   99.535255   65.205605
H   21.526745   58.847023   62.025642
H   75.152626   24.534470   35.738094
H   77.379356   19.190649   92.213577
H   10.798361   26.232147   47.249104
H   40.235527   71.200500   52.378021
H   64.735420   95.619797   27.215738
H    3.530767   76.500244   62.253067
H   85.291939   74.508240   66.647881
H   20.235868   42.359314   28.518372
H   15.052542   67.677307   84.523407
H   25.526976   29.338844   20.483738
H   81.801476   33.725231   50.538895
H   58.931637   28.333590   56.920090
H   65.587563   28.822296   24.232416
H   69.187843   41.882095   92.266167
H   99.805237   30.040255    4.842280
H   45.326263   97.300743    0.695943
H   80.292160   59.773956   88.893684
H   59.560341   78.626846   97.024071
H   63.705193   22.458691   78.615784
H   68.588936   76.055511   31.751575
H   19.833508    9.951509   72.528397
H   38.413242    6.443155   82.524704
H   41.491558   20.007092   36.816948
H   13.469577   52.382328   90.557755
H   67.035240   43.840755   44.045601
H   39.072517   20.815815   92.172920
H   24.416119   30.843906   44.011215
H   28.812933   27.811459   19.816721
H    6.169442   72.429100   24.083500
H   81.165161   12.467383   97.509659
H   42.519985   58.466908   28.273134
H   98.916267   48.526901   76.538803
H   78.534706   86.456261   33.803280
H   90.720238   57.623737   88.126305
H   60.862518   24.822392   64.082436
H   42.876823   90.255890   97.984741
H   87.150459   84.642990    5.978317
H   92.901436   75.686058   96.318863
H    7.883563    9.362143   47.959068
H   97.411194    3.937679   62.942047
H   66.140137    1.809094   85.773598
H   68.657623   86.202675   48.269646
H   90.007133   68.654091   85.442039
H   42.601593   42.347809   71.583672
H   43.371025   15.900426   99.403137
H   43.587643   67.244949   10.323073
H   63.775375   36.696289   42.936642
H   59.570297   54.147350    4.173746
H   64.219826   31.668034   75.771339
H   33.627270   74.476501   44.425205
H   40.737228   59.528931   36.647049
H   41.372795   97.399651   48.298641
H   46.529839   78.704475   69.639671
H   61.389133   70.720505   99.356094
H    4.914906   87.092133   95.305595
H   81.225410   58.898357   52.416195
H   27.810041   11.038813   52.602287
H   69.579086   37.148205    8.449684
H    6.156136   97.883026   79.461571
H    7.981701   50.128941   58.183990
H   59.286690   43.176807   49.692253
H   57.824871   56.625385   79.074387
H   44.027199   38.938232    6.397329
H   18.880888    2.269383    7.870858
H   65.271263   62.737701   72.791702
H   52.561104   90.178352   87.191444
H   50.271191   23.792183   36.774147
H   59.106960   40.760887   37.291096
H    6.062431   16.008129   77.274353
H   60.313820   17.270056    8.429295
H    9.467166   68.956917   63.078060
H   77.345009   99.863716   50.716351
H   23.508167   24.471863   42.140827
H   92.143471   28.631998   37.192238
H   19.992752   11.531306   92.002411
H   82.077759    3.945110   35.987991
H   51.068459   70.720978   57.022057
H   34.929298   83.555801   94.419510
H   72.970726   77.948242   70.954849
H   78.037781   96.104752    5.907830
H   96.523010   46.893822   23.150511
H   36.876507   48.485275   80.967827
H    0.471490    9.065437   63.064465
H   79.233040   24.680605   70.795654
H   93.055367   52.931877   84.381844
H   84.010330   80.100807   45.020882
H   16.363497   29.932705   64.432220
H   72.172226   90.313095    3.259563
H   48.388969   24.957350   71.966255
H   83.686646   94.493362   78.981857
H   96.287651   35.025558   83.243507
H   26.407778    6.956945   96.119034
H   97.243057   61.209911   20.557922
H   10.730595   60.540173   64.920517
H   47.031349   59.045757   63.908955
H   41.036724   35.722397   80.315498
H   48.817001   81.070221   26.433081
H    0.946323   14.145793   54.553383
H   37.584492   57.863411   30.451403
H   89.767624   60.597950   22.280781
H   74.981461   10.035006   31.511841
H    8.517390   81.687431   98.673904
H   33.036400    0.228336   50.971405
H   13.806912   11.214567   84.367805
H    9.488844   39.803463   99.721619
