100
TIME:    5.993, STEP:  5993
H   12.040482   72.433556   93.659256
H   34.962257   29.615637   55.984356
H   82.777145    5.064803   52.996502
H   82.482513   85.738129   11.665616
H   41.492294   53.122803    3.211173
H   35.085758   94.715431   72.253838
H   38.877064   66.015007   59.113483
H   48.848312    7.073226   57.937366
H    6.308556   10.090917   22.848539
H   11.070631    2.434161   42.367924
H   42.800766    7.383975   62.472481
H   27.104630   24.088520   66.340767
H   61.641129   99.181221   29.527031
H   58.343193   86.603767   13.309452
H   53.395103   34.708237   62.696140
H   60.558426   87.559242   35.570038
H   42.185768   78.360649   18.954779
H   29.224409    3.219624   91.777382
H   38.609867   29.767000   79.096085
H   31.055252   78.543739   24.363886
H    8.643593   59.596096   94.583717
H   36.935089   52.039780    8.918930
H    5.727539   45.881538   60.883759
H   62.222820    8.521944   61.982182
H   15.240548   10.884323   80.799538
H   19.226847   49.492210   26.863049
H   45.296059   93.354630   18.876440
H   26.870140   36.172676   64.872269
H   41.483162   92.824097   73.880005
H   30.790653   42.513145   59.814804
H   51.918854   59.458614   35.231850
H   44.158848   86.931870   44.462013
H   92.495720   30.005468   37.693726
H   31.320915   24.499931   19.275515
H   31.802460    5.894400   89.660538
H   93.599167   54.826347    0.584311
H   54.605095   85.058228   80.690346
H   16.291607   49.280262   45.350307
H   92.105133   50.838921   63.546043
H   98.720169   51.139187    9.550783
H   25.672230   61.814842   83.538185
H   95.156479   65.104691   85.912560
H   62.862057   99.438187   34.354988
H   96.671204   13.235189   66.698814
H   36.807499   95.439896   68.947495
H    0.766752   77.224136    7.508418
H   88.554977   50.758011   82.992348
H   56.559475   57.095932   39.390781
H   40.210503   36.109383    5.409837
H   51.569096   21.948645   64.504440
H   43.090084   91.057724   16.602909
H   96.381737    7.633495   80.632881
H   33.185101   56.758179   54.805851
H   37.907028    9.419425   96.271751
H   63.623405   83.802979   51.322414
H    1.060034    6.229669   88.610931
H   76.181343   16.621559   25.971733
H   79.804596   10.922510   59.189682
H   62.930756   91.987587   51.399086
H   63.541161   88.429749   93.155418
H   37.744099   99.870621   47.133877
H   86.214638   72.160080   24.189377
H   80.925697   98.331093   22.512451
H   54.569069   74.409531   64.433151
H   70.196884   82.193558   53.671177
H   33.186363   44.343224    0.536278
H    6.738560   55.554111   56.404495
H   66.388237   60.283482   52.702656
H   55.593876   19.167564   84.362213
H   51.800941   49.573425   89.113586
H   31.728764   87.637054   90.258034
H   79.816483   52.629013   95.400986
H   16.236427   21.868385    8.085648
H   98.282356   70.120995   47.069450
H   51.116779   37.184895   55.708267
H   67.339348   91.667778   92.676849
H   11.080146    7.112246   97.037193
H   13.542369   58.853958   45.411453
H   48.898037   35.915394   84.546272
H    5.623005   82.552315    4.618909
H   28.145906   91.281998   38.176136
H   91.003662   83.336258   85.626305
H   96.944588    7.343027    0.685863
H   62.457237   24.993240   16.049603
H   60.519905   74.020256   66.798264
H   13.360165   29.186222   57.955338
H   67.413643   67.612862    9.312887
H   52.412926   25.507380   33.439690
H   80.054550   60.491463   79.175789
H   36.476871   62.709766   38.452492
H   69.280907   97.036942   60.022991
H   21.720209   46.209930   47.715546
H   69.616348    7.337972   82.452469
H   26.468056   76.761543   30.897722
H   52.976768   12.912663   53.798527
H   88.918793   59.074432   57.902710
H   86.906425   11.606572   92.526169
H   26.709452   82.991791   58.570145
H   23.220184   62.683765   43.061012
H   11.460205   24.845154   20.415554
