100
TIME:    8.306, STEP:  8306
H   55.621086   60.321312   91.541641
H   71.085098   54.955288    1.824416
H   22.543444   71.470932   25.840096
H   82.870743   90.442497   84.882759
H   20.770182   38.519779   40.494751
H   99.212158   92.209587    1.316652
H   17.653088   22.198458   39.993183
H   67.051071    7.177109   45.564896
H   49.450539   87.704559   77.254745
H   47.893593   35.646854   32.934212
H   27.651138    0.452730   39.673561
H   38.824966   40.027325    1.699394
H   14.103771   59.234016   99.680038
H   43.817406   79.474464   89.330009
H   81.490669   28.099960   51.464424
H   67.556946   85.255760   43.570587
H   56.187935   31.348118   29.516302
H   78.683121   90.669151   11.599901
H   74.632172   26.799969    0.955530
H   68.735580   29.427038   81.843727
H   71.386909   29.328762   31.805464
H   58.684650   55.110321   11.945618
H   74.845131   27.072374   94.705093
H   47.311066   36.192108   90.198044
H   32.513252   27.452858   97.881630
H    8.443935   81.242599    9.250320
H   45.843559   97.205521   64.775436
H   31.705843   44.135700   41.324928
H   91.776512    2.677593   64.542931
H   19.482101   85.265732   43.691437
H   42.949299   66.869881   52.234795
H   90.203300   23.026516   30.336021
H   55.421207   60.775795   46.067032
H   29.050804   12.527302   21.832464
H   74.242256   30.789238   30.395964
H   94.664413   35.991501   93.313545
H   76.451988    0.350386   62.945644
H   20.690460    6.946558    8.573470
H   94.472099    0.445201   39.398918
H   80.860733   34.603256   91.533325
H   67.595291   41.180641   38.030239
H    0.229346   74.175140    3.997237
H   82.768646   13.313038    1.425222
H   48.977116   52.060165   92.852081
H   36.171936    4.182179   66.878105
H   70.908653   21.337166   16.905333
H    6.629329   76.546455    5.195296
H   56.694576   80.919098   82.505775
H    7.824991   44.546722   13.143627
H    0.126674   57.156071    2.776367
H   42.931263   67.752785   40.985199
H    8.800016   93.003571   28.799709
H   81.160408   70.169739   20.472609
H   84.343872   71.687271   98.338028
H   79.458626   86.503052   70.992310
H    3.940872    3.796618    9.870956
H   22.816650   49.880409   45.957222
H    7.574203   92.487740   99.610497
H   45.351711   89.726341   73.835175
H   10.909307   66.216049   27.368187
H   83.649216   92.304321   66.793800
H    4.121773   50.630997   19.533928
H   37.954868   40.496857   63.903107
H   13.397514   87.009338    1.629135
H   62.004517   97.457123   69.070511
H   91.098335   29.357353   37.299900
H   21.162691   35.522518   68.075790
H    6.613503   92.565849   63.277435
H   70.873291   52.970146   39.295273
H   98.715279   65.831436   84.226715
H   58.278400   30.260582   62.517281
H   89.288513   75.808006   64.871262
H   65.424423    7.463452   48.785442
H   47.359493   23.733482    9.639620
H   62.579437   40.545353   31.068045
H   22.015162   39.909599   37.041031
H   21.144882    6.894338   38.050018
H   22.209017    7.615078   73.152405
H   59.814362   29.121380   10.351225
H   92.191734   56.552422    5.351930
H   73.418922   15.211740   76.421204
H   64.570663   98.336166   92.124245
H   43.247643   46.023838   20.964291
H   21.589291   22.921690    4.793161
H   47.897385   29.330608   42.579399
H   60.132061   14.146277   18.577240
H   21.893816   99.438286   19.605446
H   89.612358   40.419807    9.457703
H   28.058605   31.706892   60.258430
H   31.976545   67.546646   21.136988
H   63.938435   21.931469    8.869651
H   92.858788   20.169971   91.790703
H   17.883945   76.739555   61.320312
H   50.008049   17.088245   86.859642
H   12.984947    5.728014    6.950072
H   79.963120   67.737122   38.433357
H    3.311460   44.342918   59.503075
H   22.244814   97.441338   12.137667
H   13.034230   72.669518   49.323498
H   55.127750   65.485336   97.596237
