100
TIME:    7.972, STEP:  7972
H   78.208488   90.950890   91.847427
H   80.309647   36.855297   80.765823
H   16.802309   47.441238   29.760529
H   82.814682    4.203266    3.189461
H   23.763063   11.748204   49.551117
H    4.391789   92.571434   68.240730
H   35.157841   99.644257   13.873951
H   93.302811   78.280846   76.231682
H   57.660896   19.817738   98.277542
H   57.016212   30.851107   19.855576
H   58.719009   87.013443   71.845428
H   51.573700   23.285534   25.473076
H   35.401833   79.450974   32.871769
H   60.355339   80.503944   63.914074
H   77.433907   57.934494   67.526398
H   80.986053   14.468838   71.295197
H   83.046150    9.257423   99.110962
H   71.543015    6.921539   23.177486
H   69.428711   12.787320   83.357666
H   77.735886   36.519192   59.103432
H   91.206947   62.580456   40.869503
H   26.663744   54.666931   40.388824
H   79.304512   29.787500    4.261199
H   78.344635   32.196503   15.003457
H   44.459297   53.941582   95.414955
H   10.018734   91.088913   40.681801
H   74.645126   11.089593   58.147823
H   59.886597   28.545706   30.283697
H   84.514091   72.374252   80.331688
H    6.675570   93.532150   17.139721
H   29.803255   36.920433   78.659813
H   69.114250   32.253613   61.256096
H   31.893518   85.213203   15.977674
H   14.937549   43.136421   35.902802
H   82.554543   56.077751   10.074112
H   65.630020    9.830029   94.363411
H   44.417355   12.583059   36.627651
H   34.495201   13.059095   85.003273
H    8.570149    7.721651   71.766380
H   12.320507   65.872284   65.256104
H   90.422226   29.721304   30.161345
H   28.377312   72.865356   86.944908
H   79.894257   11.309502   77.298805
H   70.303421   46.452049   60.194416
H   65.142799   17.359104   38.295929
H   75.220238   14.967895   15.548407
H    4.018362   58.382759    1.987627
H   56.674191   77.479004   61.839733
H   98.062019   72.208382   26.467121
H   93.114014   52.072376   26.129799
H   42.954197   99.997932   37.463562
H   92.567368   23.996046   50.724762
H   74.234352   68.233093   39.870399
H   92.080261   77.135361   83.599136
H    6.052048   57.233635   68.153595
H    3.524875    4.147953   21.241104
H    1.643095   59.517769   14.191102
H   32.443771   24.030478    8.213958
H   19.008865   75.614311   99.475342
H   32.948990   40.542973   36.867943
H   62.580547    7.837296   92.836586
H   15.976082   53.739822   34.646355
H   15.279216   63.288116   86.806488
H   90.462700   85.189911   10.697825
H   48.746140   24.133589   37.966965
H   11.615891   45.961540   17.551212
H   47.960266   23.975658   51.950665
H   29.685326   73.464409   47.310303
H   54.226837   76.969261   60.244171
H   91.931923   49.056240   84.935120
H   68.885460   52.987549   66.523079
H   16.792847   86.897850   40.390446
H   87.201492   23.984812   57.350002
H   54.711102   44.871449   29.483866
H   46.489990   40.053547    5.744113
H   14.118386   18.502827   59.513763
H   90.810265   35.803856   32.125412
H    6.518720   29.453304   54.704594
H   43.798813   30.102444    6.623819
H    8.571221   74.746696   34.126198
H   66.880196   11.756356   56.458466
H   39.508881   96.170181   20.067009
H   22.120966   40.438145   89.155838
H   98.610664   94.340210   35.298077
H   64.160110   50.223446   74.957054
H   67.818771    1.877883   95.382950
H   99.586632   23.723137    3.679002
H   84.240715   67.147766   12.920731
H   21.126179   50.303764   62.990120
H   61.507839   81.286636    9.197676
H   50.269794    3.897305    1.815907
H   68.146172   95.050339   85.425255
H   96.474182   66.719963   35.491577
H   17.729212   96.824913   64.338493
H   18.760483   35.646614   99.275421
H   52.376114   80.926697   55.684792
H   29.822149   25.175678   78.711540
H   22.889513   80.913597   18.843302
H   28.945183   71.227226   77.299171
H   34.382710   74.057541   29.772099
