100
TIME:    1.660, STEP:  1660
H    5.063669   69.790878   97.626236
H   55.094337   94.747215   82.712578
H    8.288763   93.331551    3.848956
H   81.755234   64.258141   49.173710
H   80.302582    5.813832   20.694942
H    2.274840   99.409691   43.141239
H   65.968147   73.429573   20.267021
H   89.413567   32.213009   55.779121
H   12.822029   26.691269   95.595451
H   29.475672   40.218498   72.695152
H   45.845871   33.036030   79.849487
H   92.481720    6.897916   74.768562
H   37.669815   61.275078   60.137650
H   72.888206   99.959267   83.566826
H    0.691007   21.749237   70.979050
H   34.779907   66.541435   95.246841
H   90.605957   91.775436   24.494238
H   36.617874   13.975018   41.997360
H   71.116631   47.993591   50.816608
H   47.793823   70.560410   29.353128
H   65.769882   90.958801   12.189430
H   21.519596   46.290947   77.909462
H   63.580635   81.121544   84.855087
H   64.809532   56.590824   83.788330
H   70.212883   54.520515   48.809952
H   39.047443   78.145126   33.580864
H   18.934761   73.474319   32.907154
H   92.476212   33.922894   21.642714
H   47.266068   99.700500   78.703514
H   64.645058   49.755051   15.353881
H   81.401436   70.905457   78.054321
H   70.570618    6.650089   45.589546
H   87.285843   47.028465   47.342865
H   48.240501   21.593513    1.818696
H   39.509926   33.436989   25.811050
H   16.885273   14.885149   14.933045
H   39.014656   43.743996   39.266727
H   95.381279   28.571407   39.582668
H   76.093979   45.071892   83.023956
H    6.840349   56.780300   68.640518
H   21.798859   13.141982   81.453415
H   82.429840   86.359413   80.789749
H   25.539389   73.454468   21.377193
H   73.357185   40.592094   43.039890
H   12.663204   66.393448   98.160355
H   56.671230   94.578743   89.911476
H   53.608143   15.287633   41.807808
H   56.328068   12.474642   71.289330
H   13.555020   94.968773   78.257004
H   60.705303   56.015659   67.560997
H   43.417973    9.381056   70.919632
H   85.806236    9.703115   65.087387
H   43.314392   31.633972    6.458939
H   38.250423   80.122536    5.068399
H    8.606760    4.029004   14.492411
H   95.643265   10.787367   36.116486
H    1.489519   41.648537   13.867365
H    2.450235   20.121071   70.797684
H   21.197815    8.907182   84.044556
H   49.475010   55.381954   16.395226
H   64.414810    1.375384   84.969048
H   39.994507   12.493589   20.244179
H   86.829636   93.953346   19.675880
H   57.029556   50.824478   82.072090
H   98.209526   28.262321   50.154202
H   99.368996   59.749519   44.337505
H   54.383835    5.754354   47.207592
H   65.698204   12.474103   45.560200
H   39.636887   30.509308   56.121361
H   64.012024   31.635817   98.237640
H   69.319771   82.454140   42.238346
H   37.092594   96.432739   78.159691
H   98.756012   36.195583   19.183369
H   93.656548   44.331856    4.549858
H   42.206718   31.005682   27.237534
H   64.905540   13.962637   84.232445
H   17.671850   82.669662   20.405859
H    9.970149   42.177574    6.114546
H   41.121521   48.639500   36.199486
H   18.116135   18.546400   77.910744
H   43.366940   46.455120   79.203148
H   65.875717   55.068619   47.969559
H   22.830868   34.963257   88.006744
H   64.364510   54.209942   11.807289
H   71.501129   45.050850   86.834137
H   13.084393   70.031166   57.058723
H   78.022362   82.657394    2.698259
H   82.677887   72.391022   78.488350
H   90.131538    1.746530   14.618433
H   19.571865   40.979111   83.558296
H   91.956551   63.065151   68.517899
H    1.110165   20.353643   65.149651
H   91.793266   77.369980   47.337418
H    7.672513   13.923482   38.743927
H   27.892315    1.036090   54.231316
H   31.030807   30.178881   81.707672
H   30.839001   62.944469   41.721191
H   12.960097   30.371582   29.476387
H   29.633484   44.005901    6.001301
H   42.332993   36.064327   37.804390
