100
TIME:    5.212, STEP:  5212
H   64.856117   44.054329   94.374283
H   56.532234   87.294220    6.738391
H   69.346558   48.875854   62.166721
H   82.351425   17.915985   54.476585
H   48.487640   90.522293   24.385792
H   47.199505   95.561546   94.907768
H   79.808693   13.276119   98.038193
H   10.233376   39.505871   29.645283
H   25.507027   85.180771   72.011070
H   32.408989   91.219963   11.784788
H   15.447479   75.958755   37.703365
H   56.915291   84.941399   21.933012
H   11.478470   46.410774    7.131339
H   97.014229   89.011024   53.876480
H   43.897163    4.470878    0.235285
H   91.960022   55.868484    0.399151
H    4.989040   26.704258   47.857269
H   12.522883   41.219601   18.851007
H   26.447090   97.001617   37.950062
H   52.094917   95.132362   71.189827
H   54.989250   37.346497   15.782028
H   62.059860   51.002991   75.428345
H   16.156319   52.233360   83.228348
H   34.787838   99.178925   19.984329
H   43.172516   72.822678   75.031654
H   22.787085   72.579407    0.305405
H   12.641901   25.819809    3.379225
H   92.768654   99.718262   39.054039
H   24.501274   21.965361   10.798504
H    0.845210   61.842705   97.728096
H   21.179707   89.425766   97.022087
H   94.846199    8.511720   16.763069
H   37.483448   87.147926   67.335075
H   98.320312   96.074120   52.177513
H   51.215469   64.932846   42.102081
H   25.707647   93.654533    3.040509
H   79.697266   13.660671   19.150372
H   48.569538   63.574841   90.238228
H   25.071819   67.856560   39.230438
H   72.280602   24.253048   48.104130
H   79.048630   35.019211   65.138161
H   63.195610   45.775681   47.661243
H   56.134846   94.754761   77.941628
H   46.539150    0.125980   90.337936
H    4.553698   26.253212    2.114982
H   10.845028   62.327747    4.335204
H   82.453415    8.283753   75.496483
H   56.517765   49.051880   91.066978
H   17.383270    0.792839   36.565094
H   35.189022   10.061323   19.130486
H   43.146976   66.458511    8.369782
H   58.425728   80.105103   31.903923
H   16.983784   52.229675    0.163609
H   55.991249   22.164009   61.807457
H   25.808052   15.359462   44.678623
H    0.087220    7.051205   15.198029
H   26.670227   39.156822   51.692055
H   37.958878   84.678383   79.305771
H    1.336971   58.988922   11.354534
H   15.081314   28.399708   15.368904
H   88.477295   36.190014    8.028087
H   13.932508   79.429520   59.529579
H   27.902632   51.625778   76.067963
H    0.937722   70.155121   85.633698
H   39.195702   44.570560   80.939720
H   81.164665   83.169182   54.357445
H   69.399933   28.555508   18.697693
H   20.337456   15.617045   15.366340
H   16.666624   75.285255   33.345146
H   35.980972   10.290089   90.758148
H   56.528313   40.775909   99.624886
H   44.213654   78.548737   38.219986
H   67.159180   60.497711   28.112358
H   15.473476   19.551895   93.474693
H   13.463290   36.070644   96.502533
H   48.874855   41.613235   45.227642
H   40.170780   74.805367   83.225258
H   76.849564    9.920063    2.277850
H   11.448325   38.209438   75.834862
H   43.919243   25.095856   71.902802
H   12.862513   83.202194   91.498360
H   32.388412   78.265884   50.953514
H   47.546165   94.282410   26.308096
H    8.727636   58.161301   87.381439
H   98.547417   22.870842   42.507393
H   31.337132    0.498746    3.720216
H   15.252432   24.398071   72.071777
H   39.850479   88.009674   41.541023
H   63.847275    3.976843   85.563362
H    5.527349   94.838547   10.534653
H   37.319206   54.863567   43.529705
H   63.934116   87.471786   32.837029
H   19.552553   83.907112   22.056538
H   50.987366   29.379103   78.236336
H   66.478859   82.870476   35.851353
H   24.411453   89.915924   98.242142
H   48.898094   66.786690   37.442307
H   25.996588   60.614746   72.630318
H   60.425415   59.317181    8.476715
H   62.946842   44.884846   95.651749
