100
TIME:    4.090, STEP:  4090
H   40.731842   46.947449   95.401505
H   87.520088   26.494539   35.993195
H   50.058098   68.155022   75.333473
H   82.163101   64.142265   15.975812
H   58.537292    0.589041   54.807602
H   64.602058   96.777092   83.792625
H   38.613400   37.514294   10.296334
H   98.420357   42.438519   32.663738
H   53.087929   93.056473   42.636272
H   63.071556   75.109703   67.851807
H   19.813187   30.812366   45.779743
H   99.734734   28.701014    1.798875
H   83.075821   14.259659   18.619217
H   52.567924   92.469337   68.491867
H   30.251686    4.692352   54.170963
H   37.075073   54.002739   93.535095
H   95.213570   52.491459   45.717186
H   88.538048   95.803795   57.749294
H    8.971481   49.935188   78.838837
H   82.326103   18.960482   94.798882
H   21.570312   49.045483   46.232872
H   54.492630   49.513519   70.977005
H   31.136635   61.358513   15.330050
H   39.036201   85.734802    3.313316
H   83.302643   61.803146   66.745399
H   27.901804    5.742873    5.813993
H    9.393187   72.462112   81.121620
H   87.439545   47.347076    1.963587
H    0.103445   20.168797   63.835670
H   57.821793   89.611931    8.532139
H   77.023506   88.813820   85.791161
H   24.002150   39.508652   20.632240
H   58.452503   69.238487   66.256454
H   50.914032   98.898743   99.446831
H   79.104538   49.747520   73.779984
H   28.173906    5.775486    6.570231
H   72.082565   54.751450   30.741201
H   94.945747   84.102333   11.062149
H   72.433777   92.304436   47.960655
H   77.960686   29.290905   59.828022
H   55.729050   96.523117   38.704327
H   64.035233   95.418701   94.953476
H   46.470402   88.026459   96.899223
H   18.184786   81.315338   80.632935
H    1.878844   70.519165    6.102748
H   25.321056   40.927296   99.774452
H   73.687790   47.266319   64.727776
H   56.457844   37.495636   21.643913
H   84.584946   93.716400   81.322968
H   11.657084   92.987282   97.605324
H   43.232578   74.780281   96.541122
H    3.899584   84.218048    5.560037
H   93.712166   45.723938   65.330025
H   81.977318   40.474236   12.297076
H   15.142126   17.025820   35.134022
H   98.683731    8.231649   53.393555
H   55.538876   71.531425   44.980537
H   21.505852   90.637352    8.205626
H   12.846891   11.580999   97.491280
H   89.121246   42.159542   47.281258
H   17.700857   88.368309   95.507851
H   53.752525   89.872940   10.293645
H   51.731174   28.189171   53.006889
H   23.892031   64.043152   16.095341
H   94.661003   34.182217   76.452843
H   50.089912   38.946724   88.016525
H   59.420242   89.764587   64.527512
H   97.841331   51.448990   61.728252
H   60.748970   55.905014    3.713930
H   13.250162   53.858810   93.120758
H   92.155785   17.116116   13.085129
H   36.728035   15.786212   56.073322
H   40.316269   15.998913   56.883125
H   40.174374   90.556145   60.140038
H   59.365124   34.469891   11.447539
H   22.346857   69.704552   20.724758
H   38.300377   72.053268   63.382755
H   24.135967   83.285835   40.315735
H   57.641525   41.505108   63.319412
H   98.943756   86.203880   68.564079
H   90.910080   71.594589   24.438391
H   48.203079   70.938370   44.774536
H   76.572029   75.527527   19.452282
H   31.535986   62.149239   89.858841
H   53.180496   93.052223   51.272751
H   57.163197   59.289009   25.805374
H   40.316582    5.976616   18.570646
H   21.790918   77.839027   53.208549
H   40.563583   66.447533   94.739876
H    4.727141   41.002647   70.423126
H   91.402222   94.280205   19.835123
H   80.915009    3.090639   11.459679
H   47.630379   50.238281   35.290508
H   42.542171   61.322891    2.586817
H   85.876228   83.372368   10.071235
H   31.738846   34.220955   56.195152
H   37.957062    2.397467    1.969015
H   21.879141   51.061584   90.589577
H   13.875023   54.480679    2.455658
H   93.257210   73.675606    3.736930
