100
TIME:    6.287, STEP:  6287
H   92.158524   45.472191   93.390091
H   26.843159   45.547962   74.521828
H   87.832962   26.215569   49.544460
H   82.531860   73.625702   95.550415
H   38.858963   76.688202   95.239670
H   30.525654   94.396919    1.368578
H   23.468987   85.865929   82.104668
H   25.740494   32.507267   30.942356
H   99.081413   81.823914    4.341968
H    3.039419    6.655847   53.879215
H   15.453598   19.213385   34.154076
H   15.882690   38.825306   45.413185
H   42.880325   81.402870    0.313653
H   43.785851   85.697578   35.683796
H   56.967903    8.446991   48.560108
H   48.737595   61.845009   11.164895
H   18.544106   97.807823   45.718758
H   35.511654   88.913773   81.584999
H   43.187916   42.101486   94.586533
H   23.135071   72.299110   44.380791
H   91.197235   30.326641   86.602974
H   65.121155   52.430069   83.882172
H    1.801860   43.490456   52.472351
H   34.904812   12.039034   40.146168
H    4.725728   87.569092   82.970802
H   17.886629   40.800423   99.216484
H   19.943489   81.134537   24.710592
H    2.063533   49.895607   74.589127
H   47.875832   19.497852   59.982117
H   42.064060   35.236717   83.187302
H   63.490707   85.822945   11.971504
H   62.722263   78.807571   17.244942
H   13.204552    8.495817   64.179565
H   43.742943   97.556778    6.890533
H   24.490219   83.655952    7.556259
H   19.155817   77.853416   99.659889
H   82.803871   74.291626    3.856409
H    4.140474   43.899204   66.096428
H   79.696625   44.432793   35.054924
H   71.027573   23.615162   32.682186
H    5.580147   71.903557   90.464699
H   70.379837   66.257614    0.922915
H   65.393219    1.201651   55.589867
H   77.896942   18.169882   95.445641
H   11.305443   83.838882   94.105453
H   96.971794   82.831741    8.702837
H   90.851852   66.746414   85.814095
H   56.575176   60.124039   57.581852
H   48.803596   11.761162   93.682480
H   57.737873   26.424196   43.945068
H   43.069897   62.674271   19.701672
H   10.669758   80.353088   61.333748
H   39.283932   58.462891   37.729572
H   31.099396    4.622119    9.244720
H   40.215019    9.567182   53.823406
H    1.426210    5.920409   78.602478
H   94.821022    8.137855   53.933495
H   57.912506   83.157768   51.617172
H   86.119217    4.410150   28.829597
H   44.141090   11.027165   84.793358
H   56.289570   86.197037   24.212231
H   75.780006   69.423569   10.886111
H    0.884342   78.269325    2.351990
H   74.757492   76.011063   56.450283
H   81.865189   58.712887   81.049751
H   15.126438   29.727562   17.920347
H   83.150467   65.717712   70.598465
H   46.079735   77.097328   66.757553
H   70.246712   98.042618   65.924408
H   57.756218   64.361748   88.494507
H   22.392101   67.633606   86.731972
H   55.574467   42.871780   16.926125
H   97.066528    7.326744    0.546848
H   91.808937   51.514225   29.600794
H   65.290764   37.604343   77.995132
H   74.288292   10.510071   72.893219
H   37.776943   81.645042    2.242395
H   27.355022   39.628845   61.648834
H   62.995556   35.051823   87.825600
H   91.205032   66.536995   79.290550
H   33.899307   94.323563   55.748127
H   13.068874   85.242981   61.033100
H   15.541162   12.259252   28.685463
H   82.684822   50.151512   89.196983
H   46.204811   55.630775   38.298172
H    6.592966   39.986176   78.371506
H   87.049232   46.236671   23.331900
H   57.141258    1.981234   30.391396
H   86.155624   44.121742   76.771248
H   10.483068   50.613041   48.961143
H   81.312584   12.912174   66.231735
H   43.473232   68.321838   53.316422
H   88.462387   16.159855    5.187938
H   54.880886   94.598213   50.721725
H   47.894035   86.578323   60.554569
H   13.202056   47.464447   42.717316
H   63.569817   28.477758   75.618118
H   26.141962   97.540161   52.668701
H    9.214902   63.951084   18.434654
H   29.720949   17.300682   92.093544
