100
TIME:    7.136, STEP:  7136
H   34.743240   67.615456   92.612808
H    3.398220   91.552742   28.052483
H    2.431974   87.296730   39.575809
H   82.674362   38.647980   49.015003
H   31.254229   44.739208   72.219147
H   17.357189   93.477135   85.448318
H   78.971695   43.195065   48.497646
H   59.010765    5.957270   52.990700
H   78.211372    0.195975   50.901798
H   79.850075   18.847383   87.121010
H   36.481689   53.374958   52.373352
H   83.479813   81.381531   84.981087
H   88.710609   30.052113   15.950794
H    1.749612   83.080727    0.291808
H   67.279854   32.610130    7.733328
H   14.600277   87.588257   40.690918
H   50.272469   53.960720   23.006586
H   53.667683   47.601196   52.154503
H   56.408199   77.717972   39.313572
H    0.263524   54.269650    2.184691
H   40.816360   45.806435   63.556667
H   46.515610   53.557129   11.581924
H   90.466316   36.585594   28.181757
H   56.021339   22.195528   77.092789
H   74.360176   20.239243   89.240883
H   13.960445   15.732124   19.353182
H   46.733982   45.842567   41.558193
H   30.427082   89.524071    2.649490
H   66.336296   96.526039   19.849401
H   74.619247   14.224037   50.679893
H   96.901009   61.953606   44.801399
H   16.328487   55.348980   38.648781
H   73.008064   46.378319   40.664192
H   79.614540   19.750778   71.123077
H    3.360293   19.374672   59.212914
H   92.958244   44.351196   96.991219
H   64.233292   43.200317   70.754242
H   69.046700   28.360027   26.009270
H   43.860249   25.934526   52.780746
H   91.062050   44.135098   99.479721
H   47.556229    1.038496   10.465992
H   98.830620   69.586975   44.265118
H   72.699677    6.294662   16.915226
H   23.686291   32.420067   78.455437
H   37.660728   50.340641   66.756905
H   86.012108   99.025131   12.152029
H   97.484665   12.917798   93.962608
H   56.623165   68.868469   10.112925
H   73.620857   41.446087   59.818062
H   75.561279   39.347919   84.583199
H   43.011600   80.708603   28.650139
H   51.938396    1.570434    5.602795
H   56.895863   63.385681   88.421059
H   11.440620   90.771896   46.707779
H   72.615891   83.969994   61.045658
H    2.483639    5.027344   49.700516
H   48.642475   83.640022   34.680519
H   94.694748    2.979934   29.749285
H   53.077370   40.287701   63.654121
H   88.116600   76.285309   60.645775
H    9.844652   46.713913   58.016228
H   45.647346   61.521194   72.473877
H   58.524662   20.335201   44.133514
H   33.055698   80.635895   33.397373
H   15.562079   90.903748   60.113667
H   62.971680   87.521721   68.119858
H   15.033785   95.073090   11.587970
H   87.433311   25.653196    7.344665
H   12.558359   37.038879   12.674399
H   74.957726    7.061153   86.706757
H   95.431419    9.868373   76.549568
H   85.629219   14.663737   79.113319
H   41.711044   65.334930   78.782776
H   73.115288   97.782471   79.156921
H    6.220242   38.822559   42.357944
H   94.355141   64.924950   15.767495
H   14.883786    8.160992   17.299318
H   67.242584   84.115059    8.533250
H    3.711581   32.558041   97.295494
H   49.568588   20.287853    6.148445
H   50.513802    3.107552    6.491548
H   76.775856   90.748734   90.006599
H   69.244286   26.457190    9.539238
H   41.094830   22.802200   11.654362
H    4.865614    2.522534   55.997185
H   87.055344   71.173157   37.328812
H   43.752094   84.507133   63.815376
H   70.795525   34.043774   21.588669
H    3.774552   96.851677   69.827522
H   35.420338   15.680660   79.310822
H   16.057270   58.753769   84.161057
H    6.290636   32.174301   69.492577
H   42.884769   41.635296   70.842415
H   36.933418   46.105675    7.968483
H   33.216347   10.529610   80.064362
H   83.325912   13.939298   98.865028
H   96.180565   77.200195   26.791462
H   24.503191   39.548534   35.626778
H   68.770500   67.617180   47.323055
H   82.455376   95.513718   10.306308
