100
TIME:    8.233, STEP:  8233
H   60.557854   67.015800   91.608475
H   73.101242   50.999302   97.221695
H   21.288645   66.218933   26.696957
H   82.858490   93.450005   88.883858
H   21.424314   32.668507   42.474136
H    0.344010   92.288673   94.087440
H   21.479027   17.268930   34.284489
H   72.788727    0.861814   52.267738
H   51.245018   94.723190   81.849548
H   49.887459   34.598682   30.075779
H   34.441422   97.515411   46.705002
H   41.611366   36.368191    6.895489
H   18.758781   63.652267    6.934499
H   47.431984   79.699471   83.775032
H   80.604012   34.620682   54.974854
H   70.492050   91.640587   49.630157
H   62.058144   26.519955   22.870825
H   77.122559   94.221352   14.130245
H   73.494888   23.737324   97.109390
H   70.702713   30.977297   76.873543
H   75.718834   36.596348   33.786549
H   51.686069   55.013412   18.162247
H   75.819786   27.665800   96.793640
H   54.094109   35.318817   95.619354
H   35.124214   33.242310   97.342506
H    8.788128   83.394638   16.120106
H   52.138718    0.239793   63.327122
H   37.865120   40.728306   38.911682
H   90.189217   96.054459   67.993767
H   16.683170   87.072464   37.888062
H   40.076015   60.323853   58.010323
H   85.594017   25.043217   37.094002
H   50.278927   66.116905   39.490616
H   25.966160   19.217262   24.907640
H   76.059013   36.316368   25.954321
H   88.318573   30.273424   93.543007
H   69.450066    3.023971   57.193508
H   23.707714    8.282532    3.422217
H   97.553123    2.035574   46.473244
H   87.736786   41.437538   85.790100
H   72.584412   38.676056   36.310390
H    6.381503   73.888870    0.270478
H   82.140411   12.875139   96.152168
H   53.638195   50.834328   85.714264
H   42.503853    7.062077   60.631104
H   71.851006   19.945080   16.608759
H    6.058669   72.576546    4.494241
H   56.690121   80.167221   77.988945
H    5.691262   50.592369   16.055756
H   98.593994   56.044964    7.880567
H   42.936275   74.800377   40.215500
H    5.252079   99.777145   33.591858
H   79.646629   69.746460   24.712358
H   86.034760   72.878021   95.116653
H   85.270912   80.105972   70.371872
H    3.849951    3.873406   12.356049
H   18.188988   51.986778   39.014336
H   13.009854   99.381615    1.490879
H   39.594006   86.641975   79.439163
H   15.726470   60.605038   29.444481
H   79.044388   95.699463   72.485786
H    6.712685   51.310471   22.836895
H   32.998608   45.478180   68.908936
H    8.384724   86.611679    3.611232
H   59.106728    3.287517   62.272430
H   95.582863   32.986412   32.983570
H   27.019812   32.998997   64.551437
H   11.656229   88.390984   59.787613
H   67.235321   58.215462   43.873924
H   97.232689   62.164783   84.381546
H   60.596966   35.227882   63.392799
H   95.300186   78.231834   59.520596
H   70.184082   11.074400   50.657337
H   48.966282   28.353626   13.976835
H   59.062881   40.437862   25.533117
H   20.289186   35.230698   41.952736
H   14.514752   13.212875   36.755119
H   18.779623   12.388103   69.120117
H   56.313957   29.335804    9.536552
H   95.771782   60.529015   11.640852
H   71.989799   14.456521   72.058090
H   59.093040   97.862762   98.231712
H   38.630005   44.803013   14.011937
H   16.567032   16.674707   11.460464
H   51.451813   33.897007   49.655952
H   61.812366   11.464862   13.507852
H   17.018312    4.746062   16.124535
H   88.438316   46.261612   10.214592
H   26.543434   35.771461   60.855476
H   38.430988   70.549698   18.527418
H   60.950977   17.989964    7.327994
H   87.457527   14.679844   90.399452
H   13.204571   74.549644   55.675110
H   42.953217   12.659413   81.937355
H   14.247265   12.267090    5.272690
H   73.933624   70.619873   42.203880
H    9.105785   40.153572   63.701332
H   22.385721   93.828987   13.603270
H   16.511681   72.354286   55.438206
H   50.593655   67.358902    4.628533
