100
TIME:    1.730, STEP:  1730
H    0.329976   63.371506   97.562149
H   53.147163   98.542229   87.128166
H    9.491995   98.367714    3.027175
H   81.766983   61.374229   45.336506
H   79.675598   11.424642   18.797169
H    1.189322   99.333855   50.073841
H   62.299419   78.155983   25.741112
H   83.911705   38.268688   49.351738
H   11.101295   19.961075   91.189476
H   27.562944   41.223595   75.435936
H   39.334641   35.852650   73.106476
H   89.810364   10.406542   69.785805
H   33.217377   57.040001   53.180481
H   69.422173   99.743507   88.893517
H    1.542532   15.496746   67.614487
H   31.965424   60.418686   89.436295
H   84.978058   96.404648   30.867414
H   38.113770   10.570801   39.570602
H   72.207176   50.930374   54.504276
H   45.908066   69.073593   34.119057
H   61.615982   83.990417   10.289520
H   28.231632   46.383339   71.949379
H   62.646034   80.552238   82.852371
H   58.305779   57.430363   78.589813
H   67.709221   48.968987   49.326385
H   38.726475   76.059097   27.019762
H   12.898575   70.564774   34.296238
H   86.569534   37.190258   23.956518
H   48.788132    6.051368   75.394493
H   67.329231   48.022568   20.918495
H   84.155037   77.182770   72.515076
H   74.990479    4.716200   39.109291
H   92.216263   41.906853   53.649017
H   51.198112   15.178431   98.869736
H   37.769966   28.145546   30.073364
H   22.971661   20.384073   14.692452
H   45.728294   41.180519   44.782475
H   92.487755   27.290203   44.522167
H   72.947311   43.577599   76.315125
H    0.247159   50.226879   74.147720
H   17.015305   15.543906   83.102585
H   76.138641   89.500740   84.078476
H   26.142340   73.874237   26.433384
H   68.887123   41.765419   49.883839
H    6.591236   63.631374    4.150534
H   55.768139   95.913887   90.195595
H   54.347279   19.063929   42.405952
H   56.331806   13.195353   75.620537
H   15.600995   89.171043   75.464951
H   62.173428   57.081104   62.664906
H   43.412632    2.622831   71.657700
H   89.208183    3.207590   60.491947
H   44.766495   32.039856    2.393412
H   36.629559   78.980721    8.157122
H    3.033996   10.165636   15.086416
H   95.730850   10.713800   33.733521
H    5.927135   39.628731   20.524969
H   97.237885   13.510289   68.994705
H   26.718369   11.864926   78.670868
H   44.855946   60.762585   14.404366
H   68.830399   98.119942   79.510979
H   37.510071   11.841906   17.076683
H   91.577408   89.179939   14.873603
H   61.836609   51.205261   80.171913
H    0.987797   22.671539   56.673443
H   95.068764   56.269600   48.476452
H   48.767685    8.174365   50.587109
H   60.862846   16.477665   48.906605
H   43.125885   25.479553   51.730873
H   65.430481   35.156830   98.090240
H   67.097023   77.691414   41.398808
H   31.321001   94.109589   83.284508
H   94.191956   32.733288   17.388401
H   92.116325   39.901848    0.389520
H   45.581429   31.105284   32.544170
H   66.560051   18.448988   79.522057
H   24.027403   76.602768   21.644072
H   13.258876   37.600166    9.980489
H   44.477005   48.434422   36.980278
H   14.683161   14.734030   71.880165
H   44.736797   47.179302   83.386955
H   71.127640   55.525772   42.116287
H   27.259808   36.131775   94.673920
H   69.179573   60.199932    5.413551
H   68.092773   40.672112   80.048401
H   11.473141   72.602119   61.919716
H   82.697502   77.567825    6.036199
H   83.804749   66.786621   77.759956
H   91.584175   97.849052   14.045790
H   13.382881   38.098938   86.060890
H   94.821236   66.845078   69.996170
H    6.289538   25.618116   66.483727
H   96.284691   79.467758   52.752762
H   14.438358   18.169508   43.463394
H   26.681873   94.766174   55.839897
H   36.812515   27.414865   78.092102
H   25.282932   66.961647   37.695465
H   13.217113   30.967590   28.356201
H   26.299095   44.307644    0.137817
H   46.680222   34.266155   31.062408
