100
TIME:    4.791, STEP:  4791
H   93.327065   82.662270   94.759720
H   68.159584   64.482773   80.194153
H   62.107605   18.587639   67.107933
H   82.280762   35.261955   77.552742
H   52.258499   56.777283   35.800079
H   53.729450   96.017647   53.215504
H    1.874785   84.848907   65.115448
H   43.323143    3.085049   68.301048
H   35.856010   25.658386   98.509865
H   43.914284   85.175026   95.298798
H   54.607880   59.018803   78.255676
H   72.983009   63.838722   51.900200
H   38.343430   71.868889   48.964111
H   17.859161   90.308662   21.837030
H   38.777275   42.075714   20.472836
H    8.887836   92.690567   35.346619
H   38.843483   98.859070    9.531981
H    3.520331   61.702366   33.444775
H   19.889843   79.342178   15.771372
H   63.436401    4.073751   42.526161
H   79.971992   79.258392   27.208630
H   21.698181   50.444107   11.280334
H   21.777275   55.657326   95.273254
H   73.905670   94.142181   51.252289
H   58.230255    6.208549   71.922462
H   24.706240   85.022598   39.894222
H   48.945999   43.321293   95.026955
H   28.291454   80.067398   25.136553
H   15.347087   83.769157   30.698296
H   84.701874   72.262352   64.259315
H    4.610181   51.673260   30.330269
H   68.263893   20.142799   55.737175
H    7.828369   17.949930   29.408072
H   80.532394   34.656097   69.914040
H   61.680084   96.757095   16.467308
H   89.111359   60.680393    4.364794
H   39.318275   29.079758   85.977463
H   65.969170   71.277336   60.527836
H   42.843678   77.029961   80.028946
H   11.935144   63.666878   14.979856
H    7.821172   20.574957   55.219585
H    1.032711   26.880068   27.885111
H   52.508526   92.230148   47.532387
H   73.421295   93.059998   49.174294
H   41.071850   42.862335   66.089378
H   16.277241   54.297810    2.623784
H   79.164352   85.388329   71.455818
H   56.495281   44.715714   65.017860
H    5.078098   35.658894   53.360512
H   26.359303    3.653433   48.574661
H   43.179096    7.103104    3.931635
H   37.965446   19.170012   59.542969
H    8.251136   49.788574   24.614794
H   65.740166   29.034424   43.229393
H   59.328522   78.461922   41.097271
H   99.560837    7.494056   29.529861
H   99.981445   51.304512   11.651485
H   69.307755   24.436956   90.149399
H   68.131691   41.201004   43.675613
H   42.861713   96.039536   27.343147
H   61.920685   55.767002   40.851456
H   28.873011   83.348129   78.577347
H   99.320885   80.353683    4.937218
H   72.029884   67.861771   97.061905
H   22.484709   78.195374   41.734348
H    7.027081    4.098259   29.464636
H    3.177194   14.000552   98.370956
H   49.418678   91.539139   95.240105
H   95.683945    5.535614   59.750793
H   27.452322   89.115723   91.644653
H   69.896553   69.420303    4.675340
H   78.926849   92.520828    7.395942
H   94.608719   81.323616   38.907806
H   24.740025   46.195980   18.488491
H   93.165047   35.470005   64.588348
H   38.920944   14.630468   73.555130
H    1.946276   11.293922   75.779900
H   57.070217   37.448612   79.029320
H   91.259331   39.446049   71.138954
H   64.565491   48.026150    8.172316
H    4.624434   78.846756   66.335747
H    0.799003   75.516434   86.156761
H   20.915682   87.241760   86.214432
H   79.762527   22.135347   25.833313
H   19.047232   49.205826   83.318748
H   41.027660   85.036247   74.484741
H   87.134773   55.008194   51.996933
H   33.073212   21.715448   45.918945
H   55.110703   27.416643   89.006599
H   42.750011   12.159775   95.484818
H   20.090172   32.132420   34.638958
H   32.784382   55.808136   24.816725
H   92.566002   71.274620   89.499924
H   10.295608    3.841733   49.850498
H   73.757195   20.580734   26.177849
H   89.638519    6.540681   19.987801
H   82.315483   42.626217   61.654175
H   24.451628   57.030182   79.369041
H   80.480988   57.502415   43.740990
H   36.798153   55.686718   36.208065
