100
TIME:    9.639, STEP:  9639
H   65.475739   38.079201   90.321243
H   34.269760   27.187176   85.874931
H   45.456417   67.372200   10.192633
H   83.094482   35.524590   11.815598
H    8.825537   45.365341    4.353703
H   78.546753   90.765450   33.328041
H   47.789387   12.208873   44.235531
H   62.279907   22.498196   23.172470
H   16.682854   59.541412   93.346474
H   11.482187   54.786762   85.126564
H    3.658679   54.087112   11.269995
H   87.946953    6.843821    6.814864
H   29.102722   78.552345   67.209595
H   77.816071   75.365791   90.771812
H   97.681282    9.029823   87.360863
H   13.959423   68.666733   32.919983
H   48.996010   19.516228   50.864548
H    7.191397   25.805000   65.389236
H   95.399277   82.721298   71.182617
H   32.824032    1.118901   72.600548
H   92.284302   96.624641   95.624039
H   86.480667   56.879898   98.428421
H   57.047661   16.236258   56.567657
H   23.455441   52.138641   91.198181
H   84.838974   21.739342    7.722377
H    2.156233   41.945786   83.809288
H   30.896877   41.795376   91.217392
H   19.231104    6.355642   85.386528
H   20.762096   23.617392    1.532049
H   70.595192   52.274307   49.661201
H   95.410149   86.403503   46.772095
H   74.369705   86.196365    6.933537
H   49.316322   63.247238   66.154198
H   85.372437   90.365929   65.675652
H   41.067772   29.862404   11.496791
H   10.539335   40.401676   89.123512
H    4.304905   51.534431   67.980850
H   65.592110   82.556664    2.639575
H   38.207088   71.399803   10.221897
H   55.306736    9.811437   96.410843
H   76.494263   86.920151   69.435143
H   87.891212   79.403488   72.045403
H   94.240387   21.310875   97.708397
H   63.868916   74.439552   23.183826
H   20.540045   51.593327   80.946823
H   53.707130   46.759991   22.320848
H   17.051350   49.042759   17.996141
H   56.775936   94.648575   64.983871
H   46.786201   34.148174   59.972343
H   28.105734   77.451927    9.573563
H   44.953281   39.219597   51.792450
H   73.584351   69.312225   41.295876
H    8.804779   77.898926   43.054710
H   53.471275   49.937271   57.158455
H   73.323250    3.320204   82.321671
H    5.601122    2.394431   64.492477
H    7.323561   11.417231   72.736534
H    8.316386   66.602470   65.276634
H   50.487514   46.053307   71.500038
H   22.944653   68.674728   89.454506
H   67.739960   30.313494   62.869984
H   56.810966   38.223618   59.222832
H   28.456562   49.542053   72.498459
H    4.932284   94.270706   65.443939
H   14.910617   90.991707   93.206383
H    9.210836   63.090355   16.117762
H   14.213371   81.606598   32.433849
H   14.534261   68.802071   27.002548
H   37.308838   57.189270   55.692684
H   25.788055   32.786228   81.399460
H   15.942688   39.559872   46.530067
H   79.518517   31.548241   62.579281
H   78.511398   41.525463   14.604130
H   18.019093   39.367817   30.436388
H   26.790598   42.508160   32.136951
H   53.531937   25.341862   47.346420
H   42.209908   91.519943   61.695229
H   84.829781   20.458321   46.776756
H   23.738951   25.205936   25.228945
H   26.819489   83.936928   90.512856
H   99.515099   29.002237   56.093330
H   64.597435    6.987836   80.604668
H   27.561075   68.316444   47.913219
H   13.297330   36.989700   83.043571
H   82.992554   45.942070   13.361232
H   29.449223   63.112892   11.144708
H   10.921938    2.518057   83.167839
H   11.049755   33.754982   95.639847
H   55.721684   57.488014   49.356209
H   14.121501   12.700584   68.785538
H   18.490927   93.908661   37.020164
H   91.487289   20.424353   17.188745
H    3.332083   16.732130   64.403252
H   76.721718   97.798874   79.988213
H   89.937317   86.326607   37.578651
H   90.063446   15.098881   69.581985
H   97.504204   20.840675   82.840149
H   19.671808   63.396412   85.372581
H   49.533226   78.425728   37.670551
H   37.926498   31.283138   69.185257
