100
TIME:    2.218, STEP:  2218
H   67.328033   18.619308   97.115372
H   39.572578   25.000792   17.910666
H   17.880239   33.475296   97.299538
H   81.848892   41.269249   18.586647
H   75.304626   50.539997    5.566240
H   93.623543   98.805168   98.401329
H   36.725140   11.106857   63.903343
H   45.555870   80.486877    4.543932
H   99.105263   73.041702   60.473103
H   14.228502   48.230553   94.543114
H   93.942078   55.488514   26.100821
H   71.187195   34.867386   35.048866
H    2.176059   27.515465    4.678214
H   45.258965   98.239357   26.030750
H    7.478716   71.906586   44.155525
H   12.343426   17.734871   48.928482
H   45.743561   28.676888   75.296692
H   48.542297   86.839180   22.651604
H   79.809837   71.402603   80.214935
H   32.761642   58.710262   67.344398
H   32.657364   35.408634   97.044037
H   75.022171   47.028412   30.395065
H   56.130531   76.583366   68.890579
H   12.965324   63.283146   42.346497
H   50.255119   10.266899   52.926666
H   36.488865   61.517132   81.278572
H   70.819008   50.278561   43.980137
H   45.393242   59.968456   40.087124
H   59.399094   50.326118   52.325890
H   86.041756   35.944687   59.713131
H    3.351966   20.945478   33.901524
H    5.803108   91.232109   93.932716
H   26.590202    6.203219   97.611908
H   71.816887   70.456314   78.310532
H   25.638985   91.256226   59.787781
H   65.401016   58.720730   13.015176
H   92.534210   23.308519   83.235107
H   72.315758   18.358379   78.959145
H   51.451767   33.088867   29.371206
H   54.282017    4.541059   12.541399
H   83.665276   32.288715   94.599655
H   32.279999   11.401898    7.005212
H   30.345770   76.800629   61.680687
H   37.724403   49.945168   97.598557
H   64.259392   44.378994   45.911598
H   49.472301    5.221729   92.176308
H   59.057972   45.460480   46.747032
H   56.357868   18.219736    5.815181
H   29.864363   48.753994   55.998817
H   72.405296   64.508522   28.534840
H   43.375401   55.510063   76.803085
H   12.923605   57.926044   28.454288
H   54.889725   34.869446   74.052666
H   25.329815   71.020638   29.689928
H   64.186462   52.947338   19.226759
H   96.341446   10.200937   17.120850
H   36.863049   25.547798   66.937691
H   60.899994   67.424850   56.425369
H   65.204628   32.485332   41.206322
H   12.654371   98.269867    0.525366
H   99.613358   75.423653   41.462650
H   20.191273    7.298738   94.996063
H   24.677975   55.902473   81.394699
H   95.345154   53.859863   66.924965
H   20.357590   83.696289    2.118829
H   65.090004   32.009590   77.330818
H    9.614031   25.045362   74.147171
H   27.153496   44.387390   72.235825
H   67.448662   90.415001   21.122902
H   75.319153   59.703522   97.062653
H   51.601295   44.487221   35.545055
H   91.083069   77.913910   19.012869
H   62.373962    8.596142    4.874912
H   81.378777    9.019540   71.386223
H   69.108788   31.799650   69.537338
H   78.094353   49.726318   46.685886
H   68.335846   34.305229   30.276182
H   36.186001    5.690596   36.932125
H   67.872101   47.003765   42.424515
H   90.750374   88.157166   29.838417
H   54.286663   52.227886   12.553638
H    7.741634   58.712784    1.309237
H   58.135845   44.278015   41.153355
H    2.747704    1.958712   60.840057
H   44.331665   10.146229   32.742126
H    0.240736   90.525337   95.807777
H   15.289938   42.086258   29.306211
H   91.660583   27.715942   72.681587
H    1.711367   70.677544   10.053648
H   70.238235   18.020020    3.507035
H   14.792358   93.197495   80.301834
H   42.398396   62.318485   75.784142
H   27.594719   94.092270   90.505447
H   61.606846   47.771358   76.366219
H   18.243366   51.055351   67.054008
H   77.119278    8.145351   52.886414
H   86.548172   94.967140    9.630190
H   15.008876   35.122620   20.546906
H    3.053123   46.411221   59.258141
H   76.986618   21.731853   84.060455
