100
TIME:    0.425, STEP:   425
H   88.581703   83.046700   98.756912
H   89.448051   27.787540    4.809327
H   87.066528    4.480399   18.349670
H   81.547943   15.139971   16.867220
H   91.364365    6.823144   54.181526
H   21.425968    0.751090   20.834471
H   30.696686   90.035316   23.688326
H   86.482132   25.370060   69.172783
H   43.180687   45.431427   73.335747
H   63.226006   22.488255   24.332170
H   60.722565   83.343414   98.811653
H   39.619953   44.993645   62.677010
H   16.228470   35.994415   82.887169
H   34.038334    3.766894   89.582390
H   85.671684   32.060730   30.342573
H   84.435440   74.564278   97.761215
H   89.897194   10.102921   12.050307
H   10.226521   74.032852   84.812302
H   51.882225   96.181229   85.753433
H   81.145027   96.621124   45.182381
H   39.056442   13.906860   45.707344
H    3.099524   44.660889   83.067818
H   80.069664   91.165718   20.190350
H   79.554413   41.778965   75.511261
H   14.383299   52.468822   39.696915
H   44.710247   14.945960   49.337814
H   25.430174   24.809891    8.399748
H   96.681175   76.276749   80.822983
H   20.412506   87.651512   37.081665
H   17.290033   80.320999   17.174870
H   32.820042   60.154442   75.780968
H   92.592224   40.768845   59.919701
H    0.293540   37.386772   36.084312
H   96.059074   34.773895   53.846443
H   70.207787   26.793564   50.607132
H    9.507009   17.871641   19.181967
H   20.562378   88.971046   41.953564
H   46.423470   51.175510   52.431568
H   31.613419   71.435493    1.391847
H   23.163525   72.396782   71.473076
H    6.198437   70.762138   52.353573
H   93.424583   30.931810   22.767218
H   14.901853   66.048538   32.171646
H   52.220062   19.894053   22.286152
H   19.790218   15.123441   92.475525
H   72.523506   71.193657   84.984932
H   40.567677   48.668026   31.254827
H   56.262112   99.759003   94.874557
H   77.452080   97.251450   27.520151
H   34.803394   37.218166   53.938858
H   43.512196   28.612879   57.898014
H   25.786657   24.301785   46.162155
H   17.695154   24.473022   78.187386
H   66.846176    0.267520   50.570210
H    6.924717   95.762283    4.012455
H   94.098007   12.085289   78.158798
H   23.195236   77.283684   96.408379
H   94.412537   36.750862    2.607578
H   23.795967   56.726028   78.856537
H   30.973030   60.455841   51.521568
H   86.509750   58.804916   81.259094
H   83.827057   23.989517   76.125809
H    3.059783   78.171562    4.401308
H   72.224190   44.106377   15.601027
H   49.191864   26.899792   35.140419
H   75.236977   21.145100   71.315178
H   53.470268   63.053493   87.580856
H   51.008171   41.843796   86.520058
H   78.084831   19.248528   33.577274
H   38.995804   69.521141    0.837054
H    8.536196   66.487617   57.050205
H   38.923855   37.420677   87.738197
H   79.280792   97.285500   50.851727
H   20.836372   22.484526   77.949593
H   82.662399   29.248423   33.616261
H   35.706120   34.810883   67.331345
H    5.541821   89.708366   98.554016
H   51.947601   22.930679   37.911617
H   81.924232   52.257465   22.427357
H   78.682693   85.808220   84.307098
H   19.198734   33.678478    5.390194
H   73.211906   47.003128   51.241570
H   44.686726   14.351106   70.379028
H   79.406281   48.529392   24.611092
H   31.636232   22.299461    6.553496
H   41.511478   24.664799   71.296516
H   95.539497   72.451958   43.808788
H   62.796829   71.267509   91.321526
H   64.502876   70.508888   24.723530
H   28.760426   91.798737   39.405392
H   41.415318   96.380875   42.436962
H    9.732491   27.469843   41.621704
H   12.552860   40.365196   51.794090
H   88.305489   39.012062   55.473263
H   49.244160   11.660130   25.852364
H   29.024872   78.948540   45.497215
H   28.867575   92.070412   12.746832
H    8.425614   19.856293   49.235558
H   88.466148   38.682301    9.452145
H   65.635422   67.788094   56.752548
