100
TIME:    5.639, STEP:  5639
H   35.979408    4.897086   93.983353
H   44.739174   10.432010   33.662197
H   76.689529   79.596451   57.153042
H   82.423096    0.322508   31.069706
H   44.663040   24.748140   12.809147
H   40.576496   95.098946   37.195316
H   57.428898   42.110401   31.430223
H   76.672012   76.446609   90.439369
H   15.010551   44.126587   45.132332
H   20.741297   97.351051   28.506826
H   75.728989   93.140137   96.572731
H   40.616760    6.344594   91.539284
H   84.230667   20.589115   64.702324
H   75.871422   87.694893   86.370308
H   49.090019   66.329269   79.711426
H   74.791672   18.521622   64.954803
H   70.652260   54.945705   86.728760
H   21.654051   20.444012    4.049414
H   33.097523   14.915271   60.444836
H   40.591797   86.062782    0.261999
H   29.650459   94.836548    4.192577
H    2.996765   51.569839   39.065323
H   10.454461   48.760597   71.011780
H   95.113380    4.287081   88.272034
H   27.900616   38.959198   78.185158
H   20.840578   59.957832   60.150688
H   75.822220    8.069586   11.852043
H   56.738583   19.649147   53.169876
H   33.785866   60.706120   90.614197
H   17.217754   51.274559   31.672424
H   37.985397   27.715862   63.239204
H   21.806980   96.714188   77.233589
H   67.561882   55.906090    5.802609
H   16.362503   56.942009   34.188210
H   40.601715   32.655045   68.102707
H   62.826191   27.099636    1.697618
H   20.652817   98.022095   52.796429
H   30.922298   55.759495   20.370556
H    7.047064   58.552422   97.851677
H   32.062992   84.279121   81.699608
H   49.865692   49.669319   75.198097
H   24.989925   63.717026   67.838768
H   59.812847   97.315353    8.785426
H   19.275028    7.293377   32.087776
H   67.513268    9.407060   38.655254
H    5.334924   70.472122    6.070239
H   85.789352   31.506634   79.594734
H   56.540569   53.449844   17.487249
H   29.863716   65.426758   19.531506
H   44.144581   16.560537   89.265427
H   43.114399   25.234655   12.871181
H   79.177605   40.482395    3.871031
H   25.841610   54.705566   75.365593
H   46.103973   15.195773   80.650291
H   91.809013   52.780544   48.311016
H    0.619091    6.602042    0.661932
H   53.738884   26.836006   92.303185
H    6.164294   44.353935   68.307602
H   35.012527   77.030525   78.574593
H   86.903076   61.221554    3.224007
H   15.412851   16.332733   74.734459
H   98.778786   75.455063   40.207855
H   56.893131   22.487917   46.787292
H   30.259212   72.481155   74.042618
H   56.145782   10.466190   20.704679
H   54.933250   61.941673   79.605019
H   35.141418   43.316761   39.313797
H   90.841331   40.038242   35.779408
H   37.949512   44.603752    6.563458
H   44.630302   31.767033   89.859009
H   42.969551   11.723162   94.503700
H    9.006231   64.377518   69.484055
H   39.318436   39.377708   17.163055
H    6.074863   92.526878   68.103325
H   34.050388   36.679844   28.872906
H   58.970627   68.981010   16.496653
H   78.940025   37.795002   90.776726
H   96.910797   82.000465   25.860323
H   31.923473   36.955204   80.597694
H   22.982376    1.836007   35.116272
H   21.218340   87.619705   17.018980
H   64.433136   81.040573   15.238374
H   74.554909    1.423272   66.974365
H   38.104073   94.700241   48.380947
H   77.756447   96.161461    1.114684
H   21.508495   16.183193   33.372604
H   43.770790   93.351540   92.432724
H   46.719627   53.835819   37.110085
H   72.708359   80.201942   82.071053
H   67.776184   77.272751   25.798555
H   54.793785   77.920639   52.547161
H   95.527794   19.586020   40.971634
H   46.924179   96.716591   55.077106
H   92.255531   55.284740    7.028243
H   59.096794   44.622822   45.663700
H   59.679871   73.053802   76.187164
H   15.005241   91.291496   12.885272
H   27.392756   65.474365   65.676598
H   40.084015   61.157810   72.712364
H   89.471329   33.929028   54.518627
