100
TIME:    3.963, STEP:  3963
H   49.320465   58.594025   95.517776
H   91.031471   19.611563   27.984510
H   47.875092   59.017982   76.823692
H   82.141785   69.374504   22.937113
H   59.674820   90.409431   58.251190
H   66.570930   96.914680   71.215874
H   45.269001   28.938267    0.364695
H    8.402313   31.451786   44.324848
H   56.209831    5.267059   50.630939
H   66.542274   73.286171   62.879021
H   31.626419   25.702213   58.012524
H    4.582222   22.335123   10.838606
H   91.176117   21.940567   31.239296
H   58.856300   92.860786   58.827213
H   28.706722   16.036343   60.276211
H   42.181351   65.110588    4.077230
H    5.426210   44.091778   34.155876
H   85.825035    1.979815   62.153095
H    6.993466   44.607025   72.147385
H   85.748375   21.657507   86.152122
H   29.106674   61.689091   49.679367
H   42.317017   49.344925   81.792236
H   32.832268   62.391396   18.963989
H   50.835869   84.211639   12.745693
H   87.845001   71.874451   65.807472
H   28.484652    9.526258   17.718817
H   20.344553   77.740860   78.602394
H   98.155945   41.419144   97.765831
H   97.341980    8.646573   69.839180
H   52.951935   92.755150   98.436188
H   72.025749   77.424980   95.838997
H   15.983260   43.017159   32.389275
H   49.506344   78.530556   54.815292
H   45.548080   10.537415    4.796916
H   82.261322   59.347710   66.045959
H   17.130438   95.799652    7.007371
H   59.901466   59.402328   20.734060
H    0.195394   86.425835    2.100324
H   77.793915   95.071709   60.268044
H   89.923134   41.180573   49.835415
H   64.408752   92.164856   35.712261
H   75.449265   89.719437   88.986786
H   45.376476   87.264877   87.725365
H   26.294271   79.187561   68.215088
H   12.895128   75.530487   95.234924
H   26.959522   38.504963   99.258980
H   72.695602   40.359764   63.508469
H   56.451061   36.187576   13.785866
H   80.871994    4.234766   86.388550
H    8.993487   91.055229    6.487852
H   43.242268   87.041161   95.202057
H   97.727783   96.002213   13.897671
H   91.078606   44.987549   72.705544
H   84.918999   42.546783    6.693251
H   25.253891    5.895685   34.053661
H   98.524826    8.365362   57.716934
H   47.488010   75.195930   32.901817
H   30.962639    2.630881   11.476986
H    2.831030    6.214766    7.241051
H   97.502518   32.397541   50.893440
H    9.689425   94.274925    5.409939
H   58.260002   91.055038   16.040146
H   43.108639   36.855522   61.715660
H   15.171148   63.352242   19.543774
H   89.620613   44.325977   64.626045
H   57.891762   45.260292   80.507294
H   69.609543   85.373383   58.396099
H    6.614235   44.185867   55.656918
H   54.418930   65.030426   11.679289
H   10.677160   47.470634   93.388184
H   96.188484   25.757545   14.608776
H   47.199295   20.001083   46.774471
H   48.596771   22.280506   60.139709
H   42.970715   98.592476   67.686089
H   53.242435   34.288700    1.819813
H   19.344133   61.565224   29.270264
H   26.769323   83.060349   61.136768
H   18.169277   91.589592   33.301628
H   51.551781   41.878147   61.901863
H    5.172157   93.120125   79.505272
H   88.425735   70.280716   16.848253
H   38.673622   70.108963   55.394043
H   68.537636   73.407501    7.356128
H   22.798632   51.281685    1.458806
H   59.364227    0.995632   63.584015
H   60.086468   54.623596   16.986145
H   31.834539   15.210548   12.514675
H   19.746954   88.007011   54.529205
H   37.928085   73.518806   95.778572
H   15.955865   46.228104   65.882706
H   86.204865   87.422096   17.153116
H   71.518295   93.540581    9.039526
H   39.489403   46.427467   25.469400
H   30.266758   53.618904   94.023567
H   88.071831   94.747643    7.153050
H   21.249176   39.236153   62.754829
H   48.037842   95.109230    9.273075
H   21.413084   49.980255   92.622398
H   19.925041   53.933231   13.093575
H   85.368156   76.935097   15.971406
