200
TIME:    0.337, STEP:   337
H   12.451803   62.153072   16.998217
H   28.828850   34.294254   93.834991
H   16.104586   73.383827   50.125969
H   21.112238   78.107521   41.963169
H   14.180269   86.187698   52.263874
H   86.463013   50.182262   62.678204
H    4.764579   55.235306   51.528873
H    5.062343   93.075073   21.629242
H   91.367767   86.052025   45.353104
H    7.446613   73.540154   92.246391
H   15.574693   96.666328   96.026962
H   31.178909   44.611912   17.364147
H   13.554919   90.227104   57.316124
H   99.818710   53.616184   46.939968
H   14.938662   72.691299   42.739925
H   26.473022   21.969719   52.230511
H   88.770569   12.261488   10.722548
H   34.258770   87.830101   41.793457
H   68.252785   26.190187   43.911762
H   90.364853   78.372581   33.710522
H   59.249176   81.600410   21.396465
H   87.869560   52.522026   66.836693
H   92.100510   61.836189   46.808746
H   10.662799   88.943542   91.281921
H    7.462580   16.605227   41.949131
H   18.580797   66.641014    3.752867
H    0.774108   60.743092   52.981934
H   96.736359   74.130890    0.986502
H   15.154046   53.581367   37.770374
H   88.666100   23.362850   95.270508
H   13.234851   55.501774   16.313406
H   30.162140   65.779770   95.991272
H   24.779556   11.072761   74.363976
H   93.216209   63.683746   39.985756
H   43.333515   85.792892   33.481258
H   29.892727   47.710308   80.588776
H   89.048538   72.335396   86.683144
H   28.116934   47.264458   10.806135
H   49.480263   42.927185   46.587772
H   89.152504   39.289600   59.907318
H   80.533173    0.692624    4.743920
H   18.167406   41.072857   36.954929
H   74.955338   85.553635   53.930111
H   37.065170   67.945061   22.217510
H   32.091145   79.254616   47.864357
H   39.694767   11.314090   43.742821
H   81.802078   21.459942   98.305916
H   87.754318   65.549126   44.160538
H   90.831688   25.071148   61.236267
H   58.646187   18.239244    1.608610
H   75.900757   69.268372   24.024536
H   17.430090   37.367535   65.627190
H   54.792477   91.646301    9.197230
H   20.962938   84.230682   83.139603
H   73.093094   74.227684   87.636276
H    4.062183   69.960434   81.824524
H    5.153658   17.112526   48.614079
H   68.468430   60.834332    3.552710
H   26.134365   76.351273    9.472540
H   40.859825   95.444496   65.201088
H   50.105366   13.483910   39.402477
H   91.679512   16.654669   49.809563
H   74.119637   27.215893   81.612411
H   26.476255   65.290726    5.833218
H   72.907661   77.525131   21.896091
H   34.934727   20.329651   34.606857
H   82.551857   21.115931   87.839180
H   96.798225   91.670464   89.191986
H   19.972790    7.164063   60.752060
H   44.678596   43.320633   50.977413
H   58.422611   78.269829   75.875961
H   29.414335   21.272171   44.085831
H   80.572403   27.340054   96.247673
H   11.025475    6.832579   63.396294
H   80.326157    2.441784   63.051781
H   55.765549   15.652025   62.243618
H   95.017593   33.561275   70.773521
H   22.962477    7.736256   44.650627
H   12.268021   34.015053   32.790089
H   66.814491   90.125969   89.661469
H   47.485004   28.462650   99.693741
H   30.901560   66.845947   84.858543
H   10.621269   14.730309   87.441620
H   21.510902   65.031456   97.013031
H   35.454029    0.349573   55.033276
H   27.400038   82.380447   25.763592
H   40.202648    2.986236    1.993698
H   74.524834   14.934161   15.100818
H   68.654800   72.291924   77.519333
H   22.958286   90.394958   53.798351
H   37.176609   35.730164   80.323036
H   83.379761   89.386520    0.484382
H   51.867622   15.768118   92.967216
H   55.678215   90.948746   71.768112
H   27.582796   55.614090   71.979721
H   65.255074   29.878017   24.500931
H   80.621407   10.924150    2.506777
H    4.228104   29.946009   49.511974
H   34.819954   68.806343   53.225002
H   68.891006   99.503693   27.274088
H   14.193975   83.108337   73.507393
H   94.179314   78.124092   65.329544
H   25.190115   33.625107   31.858431
H   26.536930   68.118576   94.014336
H   25.210155   26.197994   28.232384
H   91.263229   22.023788   39.349445
H   70.253281   31.301214   55.807800
H   64.179878   37.998684   14.990815
H   75.261673   38.865238    3.823032
H    7.482719   26.707945    6.012007
H   48.470760   95.223862    0.864097
H   89.888847   65.784607   91.616058
H   55.409313   81.400276   91.825485
H   62.895592   17.306147   72.452606
H   60.613274   86.007767   23.371569
H   10.079866    2.959594   83.310310
H   28.586803    9.808567   85.310898
H   40.278980   31.770920   32.039574
H   22.546131   61.355404   78.745605
H   73.342468   48.610836   52.961239
H   41.566963   22.404018   84.341309
H   14.103737   25.182171   51.041431
H   34.574959   17.731564   26.906654
H    2.648158   63.828022   13.617442
H   74.013893    6.550416   89.605011
H   51.276073   65.006485   23.658501
H   92.975548   49.642838   67.308624
H   73.306946   88.330742   35.821812
H   93.661423   48.972496   82.679733
H   72.446739   23.689589   68.154144
H   52.524567   81.722260    7.118259
H   77.976807   87.013443   11.614484
H   92.121010   87.314041   98.096703
H   96.164253   15.489991   50.901165
H    9.217974   99.616226   51.959557
H   59.774559    1.502360   82.252563
H   69.053307   86.811699   60.167496
H   92.045723   61.192291   81.665726
H   48.848648   45.690147   71.527145
H   43.500488    4.437691   92.762222
H   55.419849   60.216137   18.043289
H   52.772827   43.958080   48.508118
H   51.887295   58.546364   96.112480
H   53.268333   23.016375   79.731819
H   44.861393   66.550072   52.240406
H   49.494228   63.647137   25.200497
H   47.025414   96.353004   46.587357
H   40.003799   69.807983   68.268456
H   67.778412   60.742420   96.980171
H   12.554008   89.733810   86.366982
H   72.801186   62.957302   50.611916
H   37.870602    4.425767   45.112568
H   80.681923   28.211597    0.059280
H   12.474076    3.369236   73.555496
H   17.458954   56.440727   62.508244
H   66.381638   43.769421   57.045216
H   60.326611   63.792358   81.904343
H   47.425152   35.103569   11.996645
H    7.942327    1.368839   99.007721
H   62.592171   52.986023   81.963531
H   54.908764   80.468613   80.836807
H   39.049831   22.553621   34.703648
H   69.394722   30.340849   37.191719
H   14.835158   23.029228   67.048584
H   58.025421   25.379740   10.777638
H   13.584916   61.352913   61.771576
H   73.229538   95.998055   53.250000
H   23.716949   35.345860   52.023792
H   95.390991   27.854763   36.627888
H   30.899570    9.727711   89.311035
H   77.511902    6.787374   35.967934
H   42.811989   61.844318   57.755985
H   39.547123   73.286270   87.694717
H   70.031364   72.219040   76.490768
H   66.929474   94.306854   94.670486
H    3.902201   48.184807   23.379807
H   34.421265   55.951290   90.965668
H    2.589687    9.293365   66.120529
H   73.120918   19.124628   68.000343
H   81.686310   55.495613   87.753357
H   79.646873   88.665436   39.463993
H   21.184177   30.224453   73.157310
H   61.169441   90.065109    7.989861
H   53.593113   25.399948   80.758812
H   86.777351   84.127190   77.997208
H    1.291098   37.042267   84.439674
H   34.729584    2.863029    1.414393
H   85.760948   71.333321   28.920607
H    3.809328   61.605965   67.652008
H   51.377483   57.745655   66.928543
H   52.454102   27.815113   78.608772
H   46.857731   87.565262   23.388872
H    6.255084   19.831690   60.028217
H   33.408848   67.402336   35.268127
H   81.565857   49.922707   21.498987
H   75.564957   10.621465   28.237425
H   10.106050   88.204353    6.740766
H   26.090450   95.478348   44.231113
H   10.619793   11.883308   73.678886
H    6.996040   31.706526   96.401161
