100
TIME:    5.840, STEP:  5840
H   22.386934   86.464470   93.799332
H   39.187874   21.324324   46.336643
H   80.146057   94.057434   54.792973
H   82.456833   92.041534   20.052216
H   42.862701   40.859177    7.359442
H   37.458874   94.881187   57.101788
H   46.895229   55.683483   47.148685
H   60.873810   93.836594   71.985130
H   10.069588   24.801315   32.479355
H   15.250139    0.237133   36.377354
H   57.032455    1.227823   77.210655
H   32.944618   16.419376   77.231651
H   71.404404    8.433762   44.729912
H   65.918953   87.075356    1.665675
H   51.534431   48.374954   70.050323
H   66.710083    0.941156   48.270233
H   54.489082   68.240181    5.026586
H   25.952475   10.664062   97.081581
H   36.227413   23.348032   71.034729
H   35.176979   81.793495   13.946924
H   17.722832   74.827332   98.736961
H   22.266830   51.836670   21.948303
H    7.770455   47.125877   65.261124
H   76.438316    6.691622   73.344864
H   20.712296   23.018379   79.669594
H   19.924307   54.015488   41.250198
H   58.490021   99.714066   15.840315
H   39.779514   29.031151   59.814568
H   38.156364   78.942596   81.112579
H   24.924400   46.299858   47.651566
H   45.896767   45.739368   47.336723
H   34.498295   91.159821   58.625999
H   81.719231   41.199745   23.910276
H   24.855839   38.521507   25.720747
H   35.605545   17.460310   80.343170
H   80.298981   42.842873    1.065477
H   39.931000   90.661255   68.634499
H   22.615284   52.080608   34.553974
H   98.562622   54.172722   78.373055
H   13.131067   65.462975   97.513145
H   36.128525   56.565506   79.933571
H    8.050612   64.504700   78.101006
H   61.544178   98.520691   23.303726
H    6.440835   10.667135   51.739685
H   50.078503    1.476932   55.855083
H    2.741139   74.305893    6.886832
H   87.359665   42.437515   81.523888
H   56.551304   55.520081   29.924002
H   35.738586   48.780396   11.513343
H   48.360195   19.619886   75.206223
H   43.100590    5.828896   14.990106
H   88.946053   21.830753   90.676308
H   30.011219   55.871033   63.692486
H   41.449776   11.915982   89.520103
H   75.805321   70.395401   50.020878
H    0.869460    6.390610   93.819412
H   66.481102   21.036278   11.420113
H   91.197418   25.371901   63.130478
H   50.864403   85.523094   63.144432
H   73.638229   76.670395   97.507103
H   28.092648    6.985603   59.062489
H   91.644905   73.584183   31.112617
H   70.539085    8.771654   33.004120
H   44.062225   73.576080   68.586395
H   64.124603   94.412827   39.423145
H   42.585442   51.949333   91.489708
H   19.014427   50.265087   49.017838
H   76.956947   51.533421   45.388371
H   47.967922   30.161171   93.957397
H   48.701767   41.877434   89.435760
H   36.587090   98.047012   92.093025
H   92.432632   57.706757   84.199600
H   26.212734   29.435974   12.008934
H    1.650641   79.804893   56.160362
H   43.740627   36.966610   44.110001
H   63.722969   81.862480    2.972182
H   97.188774   20.373327   94.331398
H    6.354151   68.858299   36.961388
H   41.561573   36.364803   82.839684
H   13.126055   90.886818   17.799816
H   25.151789   89.699142   29.031717
H   79.519791   82.344055   98.424553
H   87.267693    4.784457   86.115616
H   51.931717   11.900341   30.023319
H   67.969597   83.589760   81.629944
H   16.881901   23.566269   47.330597
H   57.195122   78.737206    2.017179
H   49.952263   37.750851   35.026047
H   76.879501   69.010399   80.427132
H   50.004681   69.004074   32.983704
H   63.019524   88.774811   56.791912
H   10.399759   34.702713   44.800804
H   59.808716    2.747011   70.620743
H   11.681402   67.479195   20.581148
H   55.621864   26.617901   50.282627
H   76.281631   65.116364   65.805313
H   99.050987    2.826453    1.325303
H   27.004778   75.420700   61.641304
H   30.508789   62.024242   55.876770
H    1.956961   28.771358   35.155018
