100
TIME:    7.504, STEP:  7504
H    9.857597   33.867897   92.275894
H   93.235062   11.493793   51.257198
H    8.757845   13.771853   35.254887
H   82.736130   23.486057   28.842495
H   27.956682   74.236031   62.240875
H   11.649838   93.078453   21.892052
H   59.683994   68.044830   77.275726
H   30.086693   37.793041   19.201027
H   69.165230   64.814377   27.736408
H   69.798805   24.131319    1.529824
H    2.251230   68.182327   16.926588
H   69.436111   99.827576   58.786018
H   65.244545    7.779026   79.379448
H   83.528252   81.946449   28.297771
H   71.749580   99.738571   90.035187
H   99.802887   55.401733   10.143173
H   20.680183   78.301605   56.507076
H   61.537434   29.694214   39.399498
H   62.138546   93.154251   58.700169
H   90.347092   46.456051   27.239786
H   18.978714    9.169838   53.569973
H   81.796127   54.045654   80.243378
H   85.552986   33.592674   17.651789
H   21.827787   26.597872   49.761978
H   61.198067   91.054916   91.958656
H   12.225338    4.884895   84.722939
H   15.000238   30.543997   48.860806
H   99.376579    6.701042   14.814193
H   74.338005   29.913286    2.454697
H   88.730331    5.115425   79.935265
H   11.384315   94.954163   15.686409
H   39.564327   45.182598    4.581189
H   98.927986   19.453924   73.816536
H   95.163124   86.025948   55.619415
H   94.201698   91.511955   81.601456
H   24.947411   73.174194   95.834480
H   99.530655   29.723516   99.751312
H   53.836906   21.624554   51.976921
H   28.325703   17.917376   17.118980
H   56.399826    9.683608   28.433249
H   22.406130   13.664510   19.135466
H   67.817680   71.030090   63.050884
H   75.866669    8.502151   43.494938
H    0.188959   38.596825   14.437076
H    5.739773   35.822453   98.247139
H   81.261620    6.043190   13.647085
H    0.359882   32.931831   97.494591
H   56.645626   72.658752   32.882519
H   84.379646   10.969402   45.137032
H   83.287842   44.949116   58.853630
H   42.986332   45.181015   32.529053
H   69.822922   67.424118   81.445831
H   64.529579   65.519470   67.049477
H    2.919502   84.769211   62.947037
H   43.315598   16.219337   64.175995
H    2.941982    4.640244   37.172928
H   71.971924   73.021614   69.680275
H   67.292404   68.227150   20.269365
H   82.097954   55.839092   35.403877
H   63.830734    4.569658   50.178978
H   33.059185   29.601288   29.325188
H   32.586311   58.095901   55.823326
H   83.507454   95.223175   18.898651
H   58.327061   82.640533   23.405064
H   30.168709   61.513371   94.383446
H   40.364746   69.227287   89.878891
H   85.508240    7.796127   29.355974
H   62.013145   46.699516   24.937195
H   30.900391   10.596741   89.594604
H   82.427101   25.551264   85.927734
H   83.746117   84.829773   72.135994
H   55.330570    2.437039    6.086993
H   17.716311   47.133350   69.349182
H   65.012505   74.490479   57.291199
H   23.946135   39.364429   70.260040
H    3.053943   88.508934   91.005562
H   48.306355   76.310738   23.825624
H   84.531891   60.053318   28.857332
H   21.357862   31.477108    1.400975
H   31.521263    0.240486   74.444923
H   57.718147    6.914681   28.486725
H    4.391301   93.135208   59.218708
H   92.519432   32.611485   44.586594
H   66.411385   54.292843   78.042381
H   86.947403   79.500328   20.324060
H   78.587570   84.689026   62.883743
H   68.329979   57.750542   81.362984
H   76.713982    4.595984   17.773117
H   11.412480   76.361687   66.817757
H    2.883842    0.539182   92.467316
H   31.117329   78.625343   91.932541
H   33.518909   59.851791   76.506004
H   66.474365   52.677654   99.300423
H   72.498177   68.431847   32.781918
H   26.853149   77.567368   88.520905
H   13.721267   99.407898   79.857460
H   66.970116   98.319092    5.626584
H   23.792864   57.755932   28.239222
H   51.239738   69.206291   16.498226
H    5.314478   86.068893   74.856659
