200
TIME:    0.595, STEP:   595
H   20.379580   61.296825   21.409857
H   31.128414   38.060757    4.308908
H   10.697186   84.676445   62.833855
H   29.809050   81.123085   35.216534
H   11.441017   92.726669   48.554455
H   78.069824   43.179737   55.041859
H    8.502540   55.052246   56.522663
H   10.843978    4.215777   12.471432
H    1.845367   82.184151   39.059196
H   98.364563   69.926201   82.069847
H   24.567266    2.177691    4.180001
H   32.245773   51.498302   29.657196
H   19.887211   98.789574   46.741966
H   87.624573   54.704700   59.372280
H    2.482436   74.677399   42.105122
H   18.952812   11.339462   46.664906
H    0.907554   24.344904   98.196175
H   28.132486    0.232898   37.200233
H   76.836906   16.849714   47.709759
H   91.185669   74.829491   23.709164
H   62.345444   94.479546    9.576455
H   82.125816   62.383629   56.894386
H   84.374603   59.960320   40.618179
H   16.127523   91.295761   90.472916
H   18.676643   26.981562   32.743000
H   18.367228   78.091103   95.231735
H    5.770513   65.919945   63.355316
H    2.657494   84.773941    1.665379
H   26.020508   45.739326   36.259640
H   77.007362   30.274338   86.345856
H   12.898011   66.280647   16.628839
H   25.470497   71.826645    2.343360
H   18.545685   16.624313   77.515358
H   84.677361   63.965225   44.495323
H   30.952339   75.132126   31.518658
H   21.465092   41.827793   83.547256
H   96.453598   66.766838   88.620033
H   15.355396   53.938263   99.205971
H   39.931633   33.688576   52.322659
H   86.678246   38.228642   49.829193
H   80.609940   88.640236   13.307573
H   31.009142   35.662754   29.304632
H   70.309952   79.626831   63.510235
H   36.490402   80.475792   31.444801
H   40.906551   87.126183   57.174812
H   36.064083    4.599687   46.548752
H   86.663986    8.819825    3.962439
H   81.473206   65.545189   34.885513
H    0.809435   15.280425   61.422279
H   49.413483   19.403543   90.693825
H   69.763336   66.002823   13.799820
H    7.567714   41.808208   71.174095
H   61.751133   84.268143   12.568706
H   17.123114   89.675232   86.960236
H   62.172501   68.489845   79.292297
H    0.754807   63.604458   90.272827
H    4.417360   18.088844   45.846531
H   71.287155   66.831993   98.895973
H   20.690308   81.335220   15.712563
H   34.892670   93.995766   60.431694
H   49.269787    8.450260   31.864542
H   96.316612   17.265852   51.787506
H   81.227470   32.560493   72.908218
H   32.727409   65.658813   11.593647
H   77.055046   81.371353   32.446156
H   24.813931   30.353153   39.244370
H   72.914650   15.673826   93.169563
H   95.353432   92.257042   94.299942
H   29.149887   10.650563   57.486511
H   43.193451   47.817406   50.963634
H   58.309429   82.732155   82.777115
H   22.163301   14.490652   42.279839
H   88.760880   31.800411   87.608437
H   19.430820    1.161547   70.907570
H   83.467697    6.618203   50.920631
H   62.286804    6.543555   60.557697
H   93.927109   43.166004   67.124138
H   13.406533   12.434296   35.828331
H   14.229515   45.509430   27.075871
H   62.926659   88.687080   77.425995
H   58.435123   24.102188   95.863266
H   42.246292   62.206085   76.882652
H    9.614687   17.560352   79.892868
H   13.097538   73.467949    5.421751
H   26.266598    3.077818   47.721714
H   34.668606   73.353439   20.392857
H   51.765919    3.523850    2.585196
H   72.379295    5.331647   24.832014
H   76.551620   72.921288   78.449280
H   21.666042    1.959335   50.959942
H   26.361582   37.957390   79.175468
H   81.582626   91.650162    6.113845
H   64.123772   12.858355   85.619240
H   44.109039   81.679626   78.852325
H   34.120132   52.124146   82.725128
H   54.570686   35.646366   12.370322
H   84.121193    2.000413   13.618110
H   97.135727   33.954876   51.954739
H   28.973854   66.221855   54.139317
H   73.376953    3.695798   27.337076
H   25.705046   90.241760   85.656258
H    3.772933   82.027397   63.906403
H   30.538214   24.196140   35.463547
H   38.934029   68.594925    4.259995
H   24.868149   22.807453   36.597031
H    1.477257    9.392178   27.270264
H   82.474976   34.504761   54.607086
H   62.659416   47.904575    5.014345
H   81.818359   35.608547   16.298649
H   15.770598   23.110723    7.274725
H   51.865238   92.981873    1.045619
H    0.248435   72.272400   94.554855
H   50.928288   84.394188   86.213623
H   62.021629   11.743986   65.799469
H   52.003563   96.751205   14.325323
H   99.550766   95.412437   94.949364
H   17.979183   13.441465   88.318588
H   38.970005   44.469948   26.882408
H   32.344234   71.041817   65.994415
H   80.151108   53.760128   62.585651
H   44.259712   24.118481   75.887100
H    2.971598   19.070339   58.630535
H   40.795052    6.850131   34.560387
H   98.847008   54.544140    2.319227
H   66.293892    0.162433   81.072067
H   60.728252   72.065109   18.677013
H   86.562553   50.847488   57.344666
H   67.663589   90.354240   38.000813
H   96.836426   39.633499   76.800171
H   84.951881   22.466730   72.549545
H   62.939285   72.510223   16.977894
H   68.073868   89.572342   17.698757
H   91.278542   99.866425    0.015882
H   83.513451   22.104836   54.076389
H   21.963390   94.951157   40.103981
H   52.902931    1.171241   78.451614
H   69.480446   87.469139   73.011200
H   94.246376   53.136681   77.589203
H   55.592331   49.298195   71.466125
H   43.640244   92.064156   85.593369
H   68.192696   52.629002   26.377426
H   40.895599   51.797169   54.522514
H   43.593510   63.295090   87.410255
H   41.446220   13.677316   84.007149
H   56.988605   57.993507   60.676899
H   58.947392   68.091827   12.843967
H   53.127403   95.223152   44.740028
H   32.958954   60.204239   66.788231
H   74.675629   49.970440   94.415367
H   20.778303   92.550568   76.712059
H   63.707287   67.338928   48.664200
H   48.731159   97.286789   37.027431
H   92.667412   18.564548   91.002739
H   19.294161    9.291268   67.179901
H   27.689629   63.254288   67.175598
H   74.040619   44.409145   64.982841
H   63.027233   71.530052   84.959274
H   51.093235   30.964058   18.041059
H   96.134079    0.396712   89.439407
H   59.699631   42.459106   91.864502
H   57.443058   69.986969   73.976990
H   26.936192   21.216597   32.468548
H   80.500343   19.092028   37.084442
H   24.305515   30.608490   56.010601
H   55.555099   34.134129   13.312671
H   18.030020   53.143768   60.361229
H   68.786896   91.825081   55.985069
H   23.942329   47.084316   62.692432
H   98.896683   27.015739   36.018673
H   42.673458    7.780733   86.405701
H   72.583069    9.855592   35.946281
H   33.899147   52.261242   58.548260
H   44.532055   62.200172   80.435318
H   66.854523   66.046707   82.475624
H   54.938080   92.366028   82.539337
H   11.867759   49.578423   23.627331
H   31.770836   64.010841    1.758162
H    4.876296    9.539413   69.419540
H   66.522896   13.126844   64.982811
H   69.413437   58.263161   91.392899
H   74.936531   97.910934   33.465343
H   26.388092   30.539394   82.576027
H   49.289848   89.793480   13.099922
H   59.211864   25.877281   90.250359
H   90.113762   72.936928   76.934280
H    6.692220   39.219299   85.730934
H   43.713287   98.443802    7.131100
H   73.366035   82.261787   37.948429
H   96.337593   62.756485   70.600647
H   56.069126   56.342197   70.188187
H   64.779076   19.279217   76.766365
H   44.742702   94.576645   20.102655
H   11.985825   25.969603   65.938614
H   28.901588   77.698952   40.467613
H   72.712067   38.398804   20.655043
H   76.194839   11.254546   24.702700
H   11.821004   95.239357   15.448895
H   18.592384   90.350708   36.954983
H    7.179304   12.605213   62.140221
H    4.305136   22.965425   92.816734
