100
TIME:    7.354, STEP:  7354
H   20.001242   47.623695   92.413223
H   97.377823    3.365258   41.798656
H    6.179390    2.980640   37.016132
H   82.710953   29.666439   37.064854
H   29.300791   62.212872   66.308105
H   13.976136   93.240959    7.037048
H   67.545456   57.916119   65.545532
H   41.876396   24.816586   32.973991
H   72.852516   79.236221   37.178669
H   73.895790   21.977541   95.656593
H   16.203857   62.146717   31.375326
H   75.160446   92.308807   69.463356
H   74.809517   16.857883   94.286522
H   90.955467   82.408791   16.882290
H   69.927681   13.137291   97.249542
H    5.834391   68.521240   22.594782
H   32.742256   68.379578   42.851986
H   58.329655   36.993256   44.598549
H   59.802807   86.862289   50.798023
H   94.389145   49.640942   17.027079
H   27.879929   24.103233   57.640636
H   67.415482   53.846527   93.017273
H   87.555702   34.812614   21.943895
H   35.765129   24.803438   60.902802
H   66.563057    2.950195   90.850868
H   12.932583    9.306320   98.838081
H   27.934923   36.779747   45.884197
H   12.032924   99.699577    9.855754
H   71.076439   16.304544    9.544996
H   82.978531    8.828175   68.010521
H    5.480594   81.502777   27.553932
H   30.093197   49.326504   18.467415
H   88.362801   30.428236   60.303352
H   88.825386   99.772591   61.938843
H   97.934761    2.869053   72.475937
H   11.908495   61.425690   96.305977
H   85.143143   35.216919   87.931854
H   60.036171   24.369991   41.392281
H   34.657719   21.185236   31.654694
H   70.528084   23.726210   16.631529
H   32.657211    8.518102   15.601562
H   80.458824   70.441864   55.393642
H   74.575775    7.602360   32.660816
H    9.766716   36.079124   99.771111
H   18.751133   41.740192   85.411446
H   83.197960    3.182617   13.037687
H   99.187790   24.773975   96.054924
H   56.636471   71.113800   23.601360
H   79.994270   23.391964   51.121147
H   80.138428   42.666019   69.341560
H   42.996632   59.662369   30.947861
H   62.533031   81.342422   91.292328
H   61.418125   64.649719   75.760719
H    6.392784   87.215958   56.327774
H   55.258652    3.073801   62.900135
H    2.755157    4.798029   42.279282
H   62.462070   77.349770   55.414070
H   78.461838   82.392647   24.133463
H   70.269341   49.500210   46.918922
H   73.729851   93.040466   54.445335
H   23.596701   36.576660   41.019905
H   37.910103   59.492081   62.610817
H   73.324501    5.458932   29.184601
H   48.026234   81.823425   27.478016
H   24.214920   73.493286   80.414787
H   49.579529   76.684258   81.009720
H   97.542847    2.610380   22.113581
H   72.374626   38.121025   17.766327
H   23.423965   21.374786   99.001648
H   79.380684   18.017618   86.245880
H   88.509148   95.035614   73.935005
H   67.682518    7.417794   95.091927
H   27.497004   54.552555   73.194397
H   68.315269   83.984497   66.203857
H   16.720907   39.143559   58.886906
H   99.507759   78.895897    1.099167
H   34.683308   89.292915   21.165445
H   77.484619   69.861366   20.572954
H   14.165177   31.917706   99.727104
H   38.877487    8.411983   87.367592
H   54.781593    5.362863   19.521423
H   93.135170   92.162460   71.767860
H   83.032280   30.102942   30.300934
H   56.091976   41.457150   91.743248
H   94.251022   88.884483   34.864464
H   82.039108   79.179840   52.467331
H   58.311817   68.656761   74.210426
H   74.301567   16.599119   19.328369
H    8.299115   84.713585   68.044563
H   16.146105    6.710979   87.104614
H   24.978718   70.525215   88.764816
H   22.420427   48.570206   73.647270
H   56.859043   48.176693   87.700691
H   58.001274   59.331505   22.667688
H   29.446953   91.002731   85.073944
H    1.331816    5.331014   87.605110
H   78.876549   89.710846   14.253427
H   24.082399   50.334438   31.250734
H   58.385429   68.558556   29.062695
H   95.997215   89.918686   89.305969
