100
TIME:    0.332, STEP:   332
H   94.871010   91.575294   98.842056
H   92.035011   22.745239   98.943024
H   85.468658   97.789635   19.441643
H   81.532333   18.971807   21.964865
H   92.197357   99.368790   56.703209
H   22.868095    0.852309   11.624285
H   35.570568   83.755943   16.415606
H   93.791748   17.324657   77.711311
H   45.466805   54.372971   79.189400
H   65.767555   21.153267   20.690134
H   69.373199   79.601334    7.769905
H   43.169750   40.332008   69.296959
H   22.144207   41.621017   92.130974
H   38.643208    4.053635   82.505501
H   84.540688   40.367241   34.813213
H   88.174683   82.698372    5.480883
H   97.374260    3.952741    3.582912
H    8.239295   78.555420   88.036423
H   50.434067   92.280212   80.853394
H   83.662453   98.570923   38.837730
H   44.575195   23.165565   48.231155
H   94.182045   44.538139   90.986214
H   81.311348   91.922081   22.851456
H   88.195114   40.663578   82.417862
H   17.709238   59.844425   39.010086
H   45.136677   17.716976   58.054436
H   33.449741   28.675785    6.554320
H    4.528258   71.935822   77.749283
H   18.390335   79.213737   41.477936
H   13.724158   82.622726    9.781883
H   29.161684   51.814583   83.140251
H   86.720123   43.338066   68.529182
H   93.743103   44.191200   27.706137
H   92.129677   43.296814   57.764488
H   72.519447   33.823624   44.944344
H    1.420822   10.565928   19.501966
H   11.642476   92.376808   34.625500
H   50.267014   52.877682   45.869091
H   35.794666   73.420769   10.305594
H   31.923073   81.102760   64.156364
H   12.553730   67.570656   50.161823
H    1.782901   26.757624   18.397909
H   14.100966   65.490845   25.454144
H   58.158859   18.335562   13.193123
H   27.857262   18.792751   84.517395
H   73.711266   69.445366   84.620232
H   39.585682   43.650913   30.460150
H   56.257145   98.801132   89.120239
H   74.733147    4.953727   31.229948
H   32.852886   35.802647   60.443153
H   43.519291   37.591454   56.917439
H   21.267282   32.931526   52.267693
H   15.765953   23.933777   83.588356
H   68.998901    1.785040   46.466267
H   14.328524   87.609741    3.223320
H   93.981644   12.183027   81.324738
H   17.299721   79.967140   87.563332
H    1.337634   45.533470    5.003141
H   16.461517   52.796631   85.995865
H   37.109787   53.307289   54.166710
H   80.643326   63.129524   88.510529
H   87.127808   24.855148   80.333344
H   96.751778   84.513374   10.781562
H   65.838387   43.600479   18.126257
H   45.500160   34.327656   26.479368
H   80.950142   25.768421   65.816292
H   60.931725   59.838596   83.090927
H   57.432289   36.525131   82.074120
H   73.450157   25.930916   39.410351
H   37.111992   64.843895    1.032619
H   11.489630   72.815239   58.165592
H   46.591785   40.507149   80.929512
H   85.344467    1.885822   53.236469
H   22.883377   28.369753   83.476860
H   78.178146   29.116095   26.566059
H   33.507275   28.850279   73.589432
H   97.098083   97.768669   96.907898
H   47.578293   29.011738   32.775303
H   77.466942   52.529217   21.390373
H   83.243576   90.872871   92.319153
H   17.378780   32.716351   99.831909
H   66.234352   46.395767   59.018768
H   38.802563   12.798823   61.521210
H   73.009125   40.571262   33.105629
H   36.164505   28.116928   15.568654
H   43.652142   21.248749   64.838341
H   89.328239   79.213814   39.374203
H   61.299713   78.713356   92.287910
H   62.572945   75.687065   25.484505
H   36.982643   95.625961   36.080517
H   37.609379   91.358795   40.472973
H    2.851315   20.475615   39.849998
H    6.586036   37.578857   44.599419
H   79.317116   33.370560   49.203114
H   50.851963   19.990765   23.715603
H   21.343460   82.621086   50.300758
H   36.249413   86.733299   18.095406
H    8.084151   19.064453   50.723450
H   92.896477   38.281414   17.242115
H   59.859814   70.176384   65.709702
