100
TIME:    8.819, STEP:  8819
H   20.929085   13.277205   91.071976
H   56.916855   82.752930   34.170879
H   31.361414    8.378394   19.818592
H   82.956848   69.307549   56.764442
H   16.173330   79.638992   26.585587
H   91.259155   91.653816   52.121552
H   90.766457   56.840202   80.110451
H   26.730286   51.556774   98.461815
H   36.840019   38.381851   44.962933
H   33.881905   43.012775   53.020241
H   79.933136   21.093456   90.258736
H   19.243828   65.741508   65.182976
H   81.391235   28.185211   48.699020
H   18.417376   77.893257   28.369862
H   87.721565   82.276283   26.795242
H   46.930801   40.387047    0.986420
H   14.935620   65.277687   76.216713
H   89.651779   65.706429   93.816971
H   82.624313   48.322392   27.980968
H   54.914333   18.532755   16.771082
H   40.944756   78.258270   17.881838
H    7.866463   55.791336   68.258972
H   67.995842   22.902136   80.028046
H   99.645248   42.329071   52.099117
H   14.166791   86.769348    1.669457
H    6.024256   66.119370   60.975780
H    1.606313   75.882706   74.951523
H   88.420135   68.080811   58.283768
H    2.931255   49.220486   40.292534
H   39.152016   72.569107   84.474060
H   63.141003   12.872869   11.647865
H   22.594196    8.853865   82.845085
H   91.555069   23.242149   92.282120
H   50.726135   65.513977    0.221836
H   61.475182   91.947975   61.609150
H   39.257755   76.174118   91.701027
H   25.656181   81.563728    3.368121
H   99.487679   97.558800   44.772942
H   72.820518   89.267235   89.686066
H   32.542526   86.578117   31.894796
H   32.534760   58.781357   50.116299
H   56.996628   76.186874   30.186886
H   87.183502   16.390450   38.478306
H   16.221859   60.674614   43.009029
H   91.672989   83.946663   10.776805
H   64.286369   31.119907   18.989473
H   10.640151    4.444929   10.121668
H   56.725887   86.202835   14.246929
H   22.819069    2.061504   92.680023
H   10.894730   64.964745   66.909386
H   42.896038   18.226009   46.394180
H   33.732967   45.401440   95.123390
H   91.798332   73.144287   90.678818
H   72.461334   63.319077   20.974106
H   38.613380   31.459581   75.352371
H    4.579813    3.256991   92.407211
H   55.337074   35.078117   94.747643
H   69.374939   44.041740   86.397240
H   85.813393   11.402608   34.450783
H   77.055199    5.644978   12.777245
H   16.009661   68.445312   26.797596
H   85.914360   45.856064   96.322334
H   72.783493    5.489932   28.725159
H   48.625309   89.803848   87.703156
H   82.364899   56.485912   16.843760
H   59.583778    3.854981   67.632469
H   80.003403   53.256306   92.842819
H   71.177063   21.905647   87.801804
H   96.438751   16.109230    7.119541
H    9.134307   91.600418   83.138657
H   41.984921   95.354546   56.364662
H   47.043671   58.774803    2.475647
H   31.976410   82.086571   35.630894
H   36.067951   91.265480   79.158821
H   87.291672   41.300732   69.964172
H   34.144272   72.789055    2.523171
H   67.736160   62.494617   47.149788
H   46.307568   74.073128    1.488712
H   84.416344   27.614536   16.076265
H   67.033318   28.607084   61.156487
H   83.461937   20.518961    7.082730
H    3.067389    1.664674   49.205994
H   75.696205   54.603062   69.820778
H   56.881317   66.820168   57.937054
H   22.919006   97.239914   92.850601
H   48.323887   32.989754   54.201370
H   56.155918   62.139015   44.067192
H   97.862816   99.368996    4.138551
H   38.705082    3.144924   56.062752
H   86.620804   46.439751   39.474670
H   84.932487   49.629993   19.703270
H   30.815592   58.752396    1.566993
H   50.768360   92.128929    0.991393
H   99.587967   48.211414   21.449720
H    4.114354   59.778278   18.737471
H   22.334869   47.478882   11.936243
H   62.591545   73.783119   30.000118
H   21.254602   22.824875    1.838293
H   88.596336   74.884773    6.353016
H   86.993469   52.322521   48.178341
