100
TIME:    2.540, STEP:  2540
H   45.552155   89.090446   96.820572
H   30.615578   42.459816   38.222370
H   23.415106   56.641647   93.521187
H   81.902939   28.002886    0.936309
H   72.420502   76.349716   96.835648
H   88.631599   98.456322   30.290308
H   19.849422   32.850662   89.084160
H   20.247307    8.344843   74.980141
H   91.189888   42.082809   40.203159
H    5.429956   52.853996    7.151970
H   63.990417   68.444962   95.084015
H   58.897934   51.007675   12.129248
H   81.692558    8.033859   72.673027
H   29.315208   97.246864   50.535984
H   11.395828   43.143951   28.676344
H   99.395782   89.571320   22.199514
H   19.855225   49.971260    4.614289
H   55.423416   71.180397   11.487289
H   84.826347   84.909348   97.180664
H   24.087158   51.873363   89.267677
H   13.549423    3.351654   88.303223
H    5.892624   47.455872    2.973821
H   51.831367   73.964561   59.678085
H   83.047974   67.145020   18.430862
H   38.738274   84.728394   55.302261
H   35.012409   51.923855   51.097038
H   43.051926   36.892193   50.369923
H   18.224360   74.998329   50.731853
H   66.400589   79.540779   37.104393
H   98.388954   27.975266   85.311577
H   16.019873   49.821590    8.422497
H   26.134193   82.334068   64.123543
H   49.272297   82.644051   26.620214
H   85.421898   40.946854   64.744827
H   17.633942   66.915588   79.396355
H   93.397171   84.015068   11.908448
H   23.418392   11.515299    8.607354
H   59.006470   12.464840    1.683143
H   37.859039   26.073671   98.167740
H   23.954161   74.397499   37.876041
H   61.658733   43.336338    2.186299
H    3.340439   25.854263   22.132471
H   33.119343   78.731567   84.940147
H   17.163004   55.342461   29.082041
H   36.329548   31.675579   73.465553
H   45.318081   11.363392   93.483253
H   61.576054   62.971588   49.839973
H   56.375065   21.535006   25.738701
H   39.275848   22.086895   43.152916
H   79.156212   69.407112    6.014564
H   43.350834   24.423124   80.198196
H   28.571333   28.045792    7.314696
H   61.569397   36.736511   55.351395
H   17.873837   65.768288   43.899078
H   38.551178   81.175385   21.958570
H   96.744339    9.862532    6.159210
H   57.275478   16.256691   97.562477
H   36.922943   37.016251   48.131668
H   90.601631   46.090343   16.485674
H   91.405411   23.020590   91.366951
H   19.925791   60.448406   16.357990
H    8.764095    4.300993   80.428040
H   46.519772   33.944801   59.304367
H   17.456198   55.611465   58.182514
H   33.138500   57.979343   32.106117
H   45.308937   16.001961   96.369972
H   83.779305   36.177280   89.692947
H    4.910543   62.802551   87.629288
H   83.495598   67.278130    0.927098
H   81.844055   75.898506   96.384613
H   41.376656   22.578154   31.680824
H   64.531433   67.227417   42.588806
H   41.379303   92.668449   96.619133
H   74.293755   88.643265   52.248802
H   84.634911   32.258511   93.946762
H   85.705101   70.364006   25.020161
H   97.570160    6.396185   35.971104
H   51.314144   84.636589   54.715923
H   83.314697   46.057949   46.018616
H   74.958931   70.621490    2.098008
H   60.588009   55.559124   31.798035
H   31.902725   60.815689   74.384132
H   78.507217   49.653198   71.822357
H   24.899158   29.512667   31.428864
H   28.652966   90.005524    1.528014
H   92.831360    2.351988   18.168697
H   36.795586   18.674240   44.660370
H   96.844147    1.936023   69.330696
H    8.394417   52.748802    7.419421
H   41.768482    4.771225   15.017238
H   27.969910   10.584916   87.101883
H   66.225357   86.531548   81.920891
H   48.255009    3.741384   15.416412
H   92.728065   67.303886   98.078224
H   12.675335   22.211647   74.453484
H    3.715175   95.430061   36.254791
H   60.989029   13.445760   91.111626
H   16.191046   37.864258   15.394123
H   87.713829   47.799236   32.286415
H   96.983871   13.461302   53.047516
