200
TIME:    0.040, STEP:    40
H    3.325559   63.138752   11.919701
H   26.181677   29.958130   81.777977
H   22.329662   60.384186   35.497124
H   11.100930   74.636116   49.729645
H   17.333714   78.660278   56.534019
H   96.124939   58.243309   71.469841
H    0.461634   55.446037   45.780209
H   98.406868   80.249908   32.171482
H   79.306221   90.504578   52.598415
H   17.901608   77.700401    3.961003
H    5.222508   90.321724   86.641479
H   29.950775   36.684555    3.212634
H    6.265422   80.370308   69.488701
H   13.857265   52.363125   32.628353
H   29.278013   70.404976   43.470688
H   35.130009   34.206875   58.637428
H   74.798843   98.351501   25.142361
H   41.311478   73.552475   47.081005
H   58.371067   36.942333   39.539650
H   89.419960   82.451256   45.223713
H   55.684868   66.774429   35.003376
H   94.481544   41.169716   78.281906
H    0.994358   63.995621   53.935097
H    4.404908   86.289803   92.223854
H   94.553490    4.660107   52.546886
H   18.826651   53.461002   13.562078
H   95.023079   54.783695   41.040482
H   89.920441   61.878807    0.205022
H    2.645039   62.608833   39.509476
H    2.087330   15.406603    5.544012
H   13.622608   43.093540   15.950291
H   35.562984   58.818832   88.679115
H   31.955757    4.681988   70.736221
H    3.046165   63.359718   34.794510
H   57.586216   98.065170   35.740391
H   39.594307   54.482040   77.183083
H   80.524109   78.745712   84.453468
H   42.807941   39.581821   24.159828
H   60.472290   53.562328   39.985985
H   92.000778   40.510937   71.508881
H   80.446304   14.569991   94.885796
H    3.384518   47.300766   45.761467
H   80.302933   92.376350   42.901829
H   37.726822   53.520973   11.595397
H   21.943739   70.193161   37.146507
H   43.874275   19.043571   40.512737
H   76.205231   36.010612   91.793633
H   94.984901   65.553658   54.837601
H   79.345688   36.341885   61.022137
H   69.273972   16.898947   14.173971
H   82.965927   73.027550   35.794910
H   28.783533   32.255596   59.240952
H   46.783546    0.145791    5.311628
H   25.383202   77.963120   78.741432
H   85.664474   80.832870   97.241554
H    7.869513   77.277122   72.099152
H    6.001258   15.988628   51.799976
H   65.223618   53.930042    8.913217
H   32.401325   70.613937    2.289258
H   47.728992   97.112221   70.691437
H   51.067253   19.278460   48.079857
H   86.343246   15.951117   47.533436
H   65.937363   21.063326   91.632355
H   19.280228   64.866997   99.202232
H   68.133347   73.097504    9.751127
H   46.585007    8.791145   29.268326
H   93.645851   27.380661   81.703041
H   98.461418   90.995216   83.311897
H    9.408634    3.150535   64.511238
H   46.388241   38.144115   50.993275
H   58.552902   73.132965   67.931610
H   37.761066   29.078867   46.164822
H   71.146133   22.205456    6.192488
H    1.349650   13.360749   54.750637
H   76.709732   97.633766   77.016708
H   48.258522   26.137608   64.184280
H   96.272919   22.504671   74.974556
H   33.962902    2.328025   54.806526
H   10.010021   20.782675   39.368084
H   71.289703   91.782364    3.746582
H   34.879635   33.482086    4.102315
H   17.842438   72.186745   94.040092
H   11.780009   11.472468   96.131462
H   31.196054   55.319679   87.332977
H   46.030258   97.208984   63.450073
H   19.032524   92.772003   31.946182
H   26.891443    2.367353    1.312821
H   76.994698   25.987963    3.898677
H   59.570129   71.553230   76.438484
H   24.445869   77.082619   57.065823
H   49.626328   33.166264   81.644073
H   85.448555   86.780701   94.003830
H   37.758808   19.117729    1.425874
H   68.996643    1.619012   63.613087
H   20.057076   59.631584   59.610008
H   77.554543   23.237709   38.465031
H   76.592583   21.196745   89.715637
H   12.392817   25.330875   46.699955
H   41.549767   71.781509   52.172478
H   63.726955   94.677261   27.201578
H    0.943039   74.896606   59.521706
H   83.135170   73.630753   66.967812
H   19.033583   44.478912   27.707813
H   12.265535   67.570221   82.220169
H   25.603861   30.101059   18.603313
H   79.505318   36.565006   53.254326
H   56.184124   27.613413   57.190018
H   65.929176   26.595390   26.475142
H   67.713860   42.614220   89.461571
H   97.942291   30.848932    4.558413
H   44.563164   97.804756    0.655136
H   77.963257   58.315239   88.233025
H   60.567703   77.953796   98.285652
H   63.901665   23.709099   80.111450
H   70.524452   73.640320   33.785313
H   22.200466   11.648294   69.911865
H   40.797901    5.626430   81.848557
H   41.785824   17.152271   37.976311
H   11.266898   50.204762   93.424301
H   65.504616   42.683163   41.881973
H   38.467171   20.430393   94.073479
H   26.918705   32.217884   42.305138
H   27.414604   30.257626   18.096151
H    7.023974   74.516396   26.623367
H   82.899010   13.900383   99.427917
H   40.395077   56.879864   29.393003
H    0.357896   48.256088   78.778763
H   79.803368   86.001366   33.313427
H   90.006477   59.723202   89.448067
H   58.051285   25.097298   63.094322
H   40.535530   92.326813   95.768234
H   89.376701   84.067734    4.610562
H   93.090828   72.864204   95.887421
H   10.727597    7.875049   47.245087
H   94.545975    4.986389   65.607254
H   67.684921    1.883532   86.628075
H   68.561600   86.054878   45.382301
H   89.512413   70.464821   86.358467
H   41.085571   41.536697   71.597389
H   43.339607   18.682230    1.014874
H   40.716228   68.950806    8.449563
H   66.445450   34.934013   41.584568
H   61.434792   53.079807    6.130005
H   66.877510   33.767517   74.810219
H   30.900997   76.400070   42.528629
H   38.612099   58.529533   39.424873
H   40.001030   97.653648   48.713932
H   48.113564   80.863457   69.972435
H   59.838596   73.141891   99.932678
H    3.053702   86.438553   97.470772
H   83.269783   57.913342   52.854053
H   25.368631   12.643667   54.419876
H   66.884674   39.316921   10.485870
H    4.622912   96.551529   80.894844
H    5.681754   48.597210   57.134590
H   57.564903   43.032993   47.907852
H   57.217754   54.886120   78.387619
H   43.202591   39.868820    5.038480
H   21.535475    2.487925   10.021710
H   65.921303   65.104218   70.565903
H   51.991379   92.534691   88.733574
H   52.994366   24.092754   37.276611
H   56.610348   43.289581   37.315212
H    3.933485   14.304209   79.755920
H   60.869164   15.302014    7.859404
H    8.467879   70.802162   63.395115
H   78.343742    0.801682   50.101490
H   23.457500   21.832985   39.742451
H   91.355370   28.820616   37.329193
H   17.345909   11.968999   92.655548
H   83.185791    3.255355   35.992859
H   53.072121   72.875092   56.843948
H   33.808655   86.047989   96.051468
H   73.684044   79.338593   69.611404
H   80.733521   96.541061    8.634788
H   94.732193   46.580528   23.094866
H   37.472340   46.673439   78.541573
H   99.957436    9.010124   62.322826
H   80.716316   26.028917   71.474014
H   95.814384   52.309715   83.563652
H   85.069244   78.022362   46.369415
H   15.193663   29.861904   62.314838
H   74.842300   90.373276    2.111636
H   47.126060   24.849932   69.832497
H   82.936600   97.009003   79.220810
H   95.073418   34.536148   82.953224
H   24.388296    7.950451   94.834000
H    0.029511   58.753345   18.528484
H   12.410233   60.281528   64.257645
H   45.976639   59.361263   63.176167
H   38.265980   37.641319   80.729683
H   49.292473   79.494019   27.171843
H   99.658058   12.765952   53.224762
H   38.597828   55.548447   29.282415
H   91.758011   63.188595   22.470505
H   74.839859    9.892685   32.306511
H    8.131858   80.105919   96.716263
H   34.722122    1.380886   52.607124
H   14.580356   11.052279   86.961769
H   10.093803   41.768406    0.527510
