200
TIME:    0.558, STEP:   558
H   19.242666   61.419621   20.777180
H   30.798632   37.520599    2.806803
H   11.472665   83.056961   61.011406
H   28.561832   80.690620   36.184074
H   11.833856   91.788910   49.086426
H   79.273499   44.183975   56.136993
H    7.966475   55.078499   55.806499
H   10.014829    2.618163   13.784739
H    0.342839   82.738846   39.961811
H   99.667038   70.444481   83.529274
H   23.277636    1.387327    3.010766
H   32.092773   50.510719   27.894239
H   18.979092   97.561623   48.258415
H   89.373344   54.548595   57.589352
H    4.268797   74.392570   42.196159
H   20.031292   12.863956   47.463074
H   99.167038   22.612011   99.992653
H   29.011036   98.454193   37.858952
H   75.605850   18.189240   47.165085
H   91.067955   75.337608   25.143467
H   61.901405   92.632538   11.271557
H   82.949532   60.969368   58.320221
H   85.482582   60.229340   41.505974
H   15.343823   90.958427   90.588936
H   17.068451   25.493483   34.063259
H   18.397856   76.449036   96.453758
H    5.053979   65.177528   61.867661
H    1.808294   83.247612    1.568021
H   24.462139   46.863960   36.476295
H   78.679352   29.283155   87.625748
H   12.946318   64.734840   16.583603
H   26.143330   70.959457    1.432374
H   19.439690   15.828184   77.063416
H   85.901924   63.924858   43.848602
H   32.727970   76.660995   31.800169
H   22.673706   42.671410   83.122978
H   95.391632   67.565430   88.342262
H   17.185551   52.981167    0.869532
H   41.301010   35.013493   51.500214
H   87.033081   38.380795   51.274506
H   80.598930   90.368683   12.079446
H   29.167498   36.438622   30.401814
H   70.976151   80.476799   62.136341
H   36.572830   78.678749   30.121508
H   39.642326   85.997314   55.839592
H   36.584763    5.562605   46.146351
H   85.966736   10.632570    3.151268
H   82.373985   65.545753   36.215652
H   99.378510   16.684505   61.395603
H   50.737553   19.236570   92.259109
H   70.643509   66.471138   15.266128
H    8.982080   41.171368   70.378609
H   60.753105   85.325874   12.085464
H   17.673786   88.894424   86.412315
H   63.738632   69.312714   80.488914
H    1.229120   64.516029   89.061249
H    4.522953   17.948830   46.243427
H   70.882919   65.971863   99.563866
H   21.471045   80.620468   14.817676
H   35.748425   94.203529   61.115677
H   49.389618    9.172140   32.945572
H   95.651543   17.178202   51.503807
H   80.208130   31.794065   74.156494
H   31.830875   65.606026   10.767532
H   76.460266   80.819763   30.933146
H   26.265383   28.915674   38.579300
H   74.296730   16.454296   92.405128
H   95.560631   92.172920   93.567406
H   27.833792   10.150561   57.954826
H   43.406437   47.172520   50.965611
H   58.325661   82.092209   81.787415
H   23.203178   15.463168   42.538837
H   87.586563   31.160748   88.847397
H   18.225382    1.974830   69.830360
H   83.017166    6.019259   52.660370
H   61.351585    7.849823   60.799477
H   94.083496   41.788582   67.647499
H   14.776934   11.760546   37.093544
H   13.948215   43.861012   27.895351
H   63.484318   88.893433   79.180695
H   56.864758   24.727526   96.412598
H   40.619328   62.871578   78.026482
H    9.759042   17.154493   80.975441
H   14.304106   72.258064    4.215871
H   27.584175    2.686559   48.770271
H   33.626259   74.648010   21.163078
H   50.107620    3.446751    2.500369
H   72.686989    6.708752   23.436455
H   75.419083   72.831238   78.316040
H   21.851364    0.300790   51.367001
H   27.912540   37.637981   79.340042
H   81.840355   91.325531    5.306520
H   62.366100   13.275646   86.673019
H   45.768185   83.008919   77.836372
H   33.182655   52.624641   81.184120
H   56.102943   34.819122   14.109981
H   83.619286    3.280173   12.024632
H   98.152809   33.379997   51.604420
H   29.812248   66.592499   54.008194
H   72.733620    3.094614   27.328043
H   24.054228   89.218750   83.913979
H    2.397169   81.467621   64.110497
H   29.771238   25.548368   34.946537
H   37.156181   68.526611    2.790611
H   24.917196   23.293694   35.397449
H    0.012383   11.203688   29.002592
H   80.722252   34.045338   54.779282
H   62.877483   46.483963    6.445067
H   80.878059   36.075592   14.509510
H   14.582026   23.626604    7.093638
H   51.378433   93.303398    1.019587
H   98.762772   71.341980   94.133400
H   51.570915   83.964828   87.018425
H   62.146965   12.541660   66.753601
H   53.238289   95.210480   15.622682
H    1.060745   96.494728   93.280197
H   19.500431   12.920468   87.887253
H   39.157726   42.648769   27.622002
H   30.939096   69.652679   67.823074
H   79.174675   53.021664   61.205406
H   43.873543   23.872608   77.099525
H    4.568058   19.946842   57.542175
H   39.903023    8.410652   33.462711
H   99.392105   55.875549    3.939505
H   67.401024    1.078536   82.295784
H   59.372707   71.052826   19.391413
H   87.482246   50.674728   58.773605
H   68.472908   90.064049   37.688320
H   96.381096   40.972813   77.643364
H   83.158508   22.642101   71.919197
H   61.445702   73.831329   15.563915
H   69.494057   89.205368   16.826206
H   91.399361   98.066277   99.740646
H   85.327713   21.156208   53.621059
H   20.135578   95.620178   41.804199
H   53.888397    1.218727   78.996712
H   69.419189   87.374855   71.169273
H   93.930779   54.291943   78.173820
H   54.625214   48.780762   71.474876
H   43.620201   93.838615   86.621460
H   66.360931   53.717079   25.182220
H   42.598923   50.672958   53.659985
H   44.782928   62.614071   88.658249
H   43.141640   15.016665   83.394020
H   55.249432   59.220612   59.467014
H   57.591705   67.454422   14.616028
H   52.252312   95.385185   45.004955
H   33.969261   61.581520   67.000511
H   73.686493   51.515259   94.783188
H   19.598835   92.146614   78.096680
H   65.011421   66.710556   48.943523
H   47.173637   98.310646   38.186928
H   90.948563   19.948040   92.301544
H   18.316105    8.441971   68.094231
H   26.222439   62.277149   66.506294
H   72.942238   44.317402   63.844398
H   62.639935   70.420380   84.521164
H   50.567192   31.557709   17.174225
H   97.827522    0.536126   90.811607
H   60.114452   43.968781   90.444595
H   57.079613   71.490150   74.960762
H   28.673460   21.408340   32.789085
H   78.907677   20.705231   37.099827
H   22.947359   29.521542   57.593529
H   55.909370   32.878654   12.949120
H   17.392544   54.321049   60.563488
H   69.424019   92.423531   55.592831
H   23.910007   45.400894   61.162434
H   98.393929   27.136065   36.106041
H   40.984955    8.059951   86.822357
H   73.289917    9.415576   35.949387
H   35.177345   53.635559   58.434639
H   43.817162   63.790157   81.476395
H   67.310135   66.931679   81.617188
H   56.657776   92.644363   84.279076
H   10.725411   49.378563   23.591833
H   32.150936   62.855011    0.210515
H    4.548366    9.504128   68.946426
H   67.469124   13.987010   65.415558
H   71.173500   57.866264   90.870949
H   75.612045   96.585030   34.325615
H   25.641794   30.494228   81.225281
H   50.993595   89.832718   12.366821
H   58.406075   25.808826   88.889168
H   89.635284   74.541733   77.086716
H    5.917641   38.907089   85.545753
H   42.424927   99.077538    6.311266
H   75.143600   80.694527   36.653717
H   97.409157   62.591488   70.177780
H   55.396294   56.543468   69.720718
H   63.011593   20.503357   77.030586
H   45.046021   93.571136   20.573935
H   11.163980   25.089359   65.090904
H   29.547956   76.222305   39.721951
H   73.981796   40.051456   20.776073
H   76.104507   11.163755   25.209618
H   11.575061   94.230461   14.200055
H   19.667688   91.086067   37.998459
H    7.672708   12.501684   63.794991
H    4.691041   24.218994   93.330780
