100
TIME:    8.425, STEP:  8425
H   47.573479   49.408379   91.432693
H   67.798508   61.404087    9.327815
H   24.588938   80.032410   24.443295
H   82.890717   85.539848   78.360420
H   19.703856   48.058155   37.268082
H   97.367310   92.080666   13.101634
H   11.416450   30.234262   49.299137
H   57.697906   17.471949   34.638344
H   46.525291   76.263229   69.764587
H   44.643318   37.355518   37.593544
H   16.582047    5.240837   28.211199
H   34.282753   45.992214   93.228783
H    6.515356   52.031662   87.853760
H   37.925148   79.107674   98.385384
H   82.936043   17.470291   45.741943
H   62.772324   74.847618   33.692657
H   46.618690   39.218685   40.349342
H   81.227051   84.878578    7.475079
H   76.486099   31.792500    7.224651
H   65.528885   26.899904   89.945808
H   64.325279   17.481602   28.575617
H   70.093300   55.268295    1.811719
H   73.256310   26.105009   91.300476
H   36.253777   37.615692   81.360565
H   28.257427   18.015259   98.760475
H    7.882704   77.734482   98.051804
H   35.581589   92.259293   67.135971
H   21.664946   49.690220   45.258850
H   94.364021   13.474081   58.917595
H   24.044743   82.320511   53.151733
H   47.633144   77.541313   42.819893
H   97.717064   19.739017   19.319588
H   63.803829   52.069054   56.787491
H   34.079010    1.621803   16.819506
H   71.280693   21.779259   37.636448
H    5.008787   45.312889   92.939491
H   87.866081   95.992439   72.322411
H   15.771935    4.768738   16.970619
H   89.449608   97.852318   27.866962
H   69.651825   23.462790    0.895611
H   59.462341   45.263458   40.833828
H   90.200699   74.641800   10.072362
H   83.792755   14.026873   10.020519
H   41.378918   54.058449    4.487376
H   25.849773   99.487587   77.061089
H   69.372490   23.606457   17.388788
H    7.559718   83.017952    6.338054
H   56.701839   82.144760   89.868828
H   11.303154   34.691490    8.396456
H    2.624523   58.967327   94.456200
H   42.923092   56.264244   42.239914
H   14.583553   81.961716   20.987701
H   83.628075   70.859741   13.561235
H   81.587494   69.746185    3.589011
H   69.983803   96.931168   72.003708
H    4.089087    3.671441    5.819916
H   30.360374   46.446739   57.275078
H   98.713318   81.249779   96.545433
H   54.737560   94.754280   64.699905
H    3.056670   75.362213   23.983543
H   91.155716   86.769775   57.515720
H   99.898186   49.523361   14.149561
H   46.034252   32.376617   55.742920
H   21.569050   87.657578   98.398438
H   66.727783   87.953247   80.152313
H   83.787941   23.441490   44.336109
H   11.614782   39.636204   73.820969
H   98.393219   99.371452   68.966324
H   76.803680   44.419563   31.831444
H    1.132129   71.809036   83.974319
H   54.498821   22.163494   61.090065
H   79.488663   71.856834   73.594345
H   57.665527    1.577207   45.733997
H   44.740208   16.202015    2.569277
H   68.311905   40.720577   40.090733
H   24.828737   47.536850   29.034109
H   31.952953   96.594604   40.160881
H   27.799398   99.834389   79.725586
H   65.520744   28.771839   11.679253
H   86.355766   50.070030   95.100029
H   75.748589   16.442850   83.533676
H   73.500748   99.107880   82.168236
H   50.775024   48.013950   32.297581
H   29.776260   33.105080   93.924156
H   42.103180   21.886753   31.043686
H   57.392933   18.517353   26.840927
H   29.841555   90.786018   25.279808
H   91.526207   30.896919    8.223869
H   30.528542   25.081507   59.285164
H   21.455370   62.651009   25.390944
H   68.808403   28.356663   11.382712
H    1.663583   29.119576   94.058632
H   25.512104   80.309410   70.522766
H   61.508392   24.307850   94.883644
H   10.927197   95.068863    9.684433
H   89.792023   63.037842   32.286888
H   93.865776   51.172127   52.659340
H   22.015116    3.329667    9.748533
H    7.365530   73.183388   39.355686
H   62.518948   62.431637   86.133118
