100
TIME:    8.619, STEP:  8619
H   34.453850   31.617563   91.255081
H   62.440536   71.916138   21.560123
H   27.923609   93.989777   22.166157
H   82.923279   77.547295   67.727364
H   17.965475   63.608112   32.007797
H   94.359741   91.870491   32.314117
H    1.249132   43.334648   64.470192
H   42.449890   34.254833   16.825310
H   41.756401   57.610977   57.552959
H   39.344551   40.141071   45.189430
H   98.536652   13.046594    9.524164
H   26.877800   55.716488   79.419426
H   94.144531   40.290009   68.573944
H   28.319567   78.509712   13.149220
H   85.292366    0.141270   36.412857
H   54.972183   57.879723   17.588478
H   31.018410   52.049694   58.009926
H   85.374298   75.438484    0.750454
H   79.508469   39.931583   17.444775
H   60.302212   22.780039    3.154206
H   52.813042   98.167938   23.310152
H   88.692268   55.525833   85.290833
H   70.666130   24.527960   85.750092
H   18.228174   39.936493   66.953247
H   21.319447    2.629593    0.193122
H    6.967630   72.015366   79.796219
H   18.852571   84.195694   70.984238
H    5.295994   58.745487   51.672134
H   98.582314   31.074774   49.746880
H   31.482998   77.519058   68.574402
H   55.268993   94.938438   27.471230
H    9.966206   14.379454    1.360090
H   77.468155   37.874870   74.264542
H   42.275818   83.842834    8.647120
H   66.452599    7.090733   49.440266
H   21.872335   60.509102   92.329689
H    6.473611   88.887947   87.608910
H    7.753849    1.218269   30.660088
H   81.261681   93.625145    9.067440
H   51.379501    5.300973   16.159170
H   46.203583   51.919479   45.404385
H   73.851486   75.402573   19.976467
H   85.462311   15.190603   24.032810
H   28.991940   57.316154   23.454891
H    9.021748   91.835457   93.661919
H   66.868156   27.305973   18.176943
H    9.076507   93.568123    8.200968
H   56.713680   84.142899    1.872416
H   16.973427   18.624977    0.657409
H    6.696655   61.920132   80.892540
H   42.909771   37.535027   44.285416
H   24.012491   63.960705    8.252385
H   87.650993   71.984619    2.293955
H   77.093903   66.581726   12.149184
H   54.537453   13.932528   73.652542
H    4.330713    3.467372   99.215683
H   42.658546   40.848991   75.726036
H   84.267517   62.929070   91.548607
H   70.038857    2.951414   49.805702
H   90.254051   90.272766   18.465721
H    3.393312   77.747070   42.390553
H   93.012749   47.717636    5.371443
H   59.205685   19.137861   42.439758
H   34.890873   88.714371   93.132233
H   74.427277   72.459534   98.218445
H   71.870155   13.797227   55.806904
H   96.049545   46.342548   83.187057
H   84.992371   10.466897   78.240646
H   86.471710   30.479958   19.663521
H    5.072280   81.554031   83.562851
H   48.337154    8.963002   58.763344
H   63.512482   65.415428   87.815170
H   45.016571   91.980370   40.759373
H   40.470112    3.923886   91.042366
H   77.657272   41.006237   54.799992
H   29.415575   59.971191   15.980346
H   49.572098   79.804321   43.602119
H   36.912731   87.149910   90.441528
H   74.824669   28.202000   13.844273
H   76.841667   39.502098   78.386711
H   79.546532   18.449869   95.128799
H   88.059036    0.366342   65.937431
H   63.046555   51.258335   50.773701
H   43.122467   49.705910   76.204369
H   32.657166    9.751202   12.238169
H   52.927464   25.643307   40.312820
H   42.798374   76.680641   34.530449
H   94.646263   15.372864    6.212245
H   34.554691   14.280399   57.698494
H    4.302949   54.668816   32.325928
H   76.747673   38.831348   15.479636
H   16.017618   43.710281   97.755928
H   37.947926   86.129173   85.525085
H   80.258133   36.077625    7.964539
H    7.572568   77.692459   14.142132
H    5.815678   55.376831   22.266594
H   78.466789   62.305458   41.502327
H   21.640650   12.928788    5.853643
H   98.123924   74.021126   23.105640
H   74.569763   57.454052   67.445343
