100
TIME:    3.071, STEP:  3071
H    9.643326   40.394920   96.334427
H   15.844860   71.250732   71.717758
H   32.542480   94.844543   87.290428
H   81.992065    6.124334   71.832336
H   67.664383   18.911694   82.437653
H   80.399544   97.881050   82.877525
H   92.019508   68.707375   30.609138
H   78.511749   54.281666   26.224758
H   78.136894   91.029175    6.777887
H   90.919289   60.478371   27.946802
H   14.598083   89.811035   43.935047
H   38.629738   77.624115   74.332039
H   47.915512   75.907547   19.896805
H    3.023366   95.610176   90.944084
H   17.855480   95.713516    3.151282
H   78.045914   43.128265   78.121437
H   77.155556   85.093430   52.953594
H   66.769859   45.357994   93.077332
H   93.098915    7.184042   25.154779
H    9.782341   40.598850   25.420557
H   82.039230   50.490204   73.889023
H   56.800110   48.160782   57.754257
H   44.741753   69.645973   44.486053
H   33.712357   73.513519   78.994835
H   19.747517   42.614090   59.219826
H   32.577633   36.103886    1.326938
H   97.262756   14.818681   60.907116
H   73.419182   99.783623   68.284752
H   77.946533   27.716902   12.004721
H   18.749214   14.833055   27.523926
H   36.918140   97.438492   66.411201
H   59.661995   67.660591   14.966179
H   86.674652   43.792961   74.456886
H    7.857854   92.284004   42.374054
H    4.433830   26.776215   11.731644
H   39.566128   25.727633   10.083379
H   74.347298   92.068344   50.448055
H   37.061073    2.746265   39.153072
H   15.443728   14.505445   46.709290
H   73.938934   24.686266   79.654640
H   25.370394   61.554623   14.697232
H   55.617180   49.687523   47.079010
H   37.693157   81.915817   23.295486
H   83.255295   64.242859   80.999718
H   90.269096   10.726524   18.904745
H   38.467487   21.491413   95.638496
H   65.726852   91.848602   54.940445
H   56.403423   27.002111   58.594002
H   54.796028   78.108940   21.970106
H   90.288933   77.485222   68.873688
H   43.310322   73.158188   85.796967
H   54.377262   78.773758   72.457329
H   72.581474   39.815430   24.510036
H    5.578419   57.103577   67.331268
H   96.275253   27.718674   26.468100
H   97.408737    9.304478   88.082718
H   90.940208    0.934075   48.065147
H   97.383537   86.869339   34.454788
H   32.479912   68.525940   75.721596
H   56.363342   63.836514   76.264046
H   53.421913   35.756290   74.955856
H   89.918816   99.357651   56.403091
H   82.550941   97.723198   22.882797
H   53.920319   58.499977   43.764263
H   54.216938   15.568017   81.557777
H   12.688709   89.604408   27.765564
H   41.176796   54.533306   15.330085
H   68.230766   93.170410   13.014159
H    9.959352   29.123848   67.626076
H   92.604065    2.604325   95.266479
H   24.514626   86.448631   25.310299
H   20.749456   49.604660   81.466431
H    6.756216   66.400414   83.007072
H   62.609585   55.041458   20.689888
H   10.237493   33.016087   34.201084
H   98.255745    4.394480   89.290283
H   45.782108   60.373840   45.361805
H   76.261490   49.916088   84.039856
H    8.779428   44.498234   51.945534
H   48.917763   41.700840   56.351791
H   70.976639   61.052563   63.535191
H   71.745575   64.283524   29.982794
H   12.100954   58.517242   22.397343
H   61.428905   74.951019   82.928314
H    2.796555   56.792835   50.053383
H   80.612915   21.856552   55.042797
H   72.259865   80.066200   69.980423
H    5.390921   59.422684   63.804993
H   19.415031   23.183687    3.075006
H   94.820526   82.926224   33.998909
H   49.700592   39.256832   98.315628
H    5.514399   26.462557   92.040810
H   82.311722   19.661749   56.489586
H   44.051991   99.510994   33.880676
H    3.493520   74.648651   86.655724
H   47.573608   74.461006    8.827845
H   18.840889   43.918865   60.573616
H   18.139677   42.385406    6.897726
H   62.418083   50.088169   87.808113
H   29.962610   99.828529    1.899919
