100
TIME:    1.948, STEP:  1948
H   85.587311   43.379745   97.362564
H   47.083107   10.361853    0.879549
H   13.239202   14.051044    0.467945
H   81.803574   52.392906   33.386356
H   77.722992   28.898304   12.886740
H   97.809334   99.097679   71.663353
H   50.874844   92.875374   42.788994
H   66.777336   57.127804   29.335030
H    5.742439   99.001022   77.468010
H   21.606165   44.353752   83.971519
H   19.056808   44.624409   52.107754
H   81.490997   21.333605   54.268074
H   19.350452   43.850761   31.513851
H   58.627953   99.071571    5.482883
H    4.194405   96.024323   57.135185
H   23.200317   41.350006   71.340591
H   67.451172   10.821358   50.714523
H   42.772415   99.969215   32.012985
H   75.603447   60.076355   65.989014
H   40.035278   64.443222   48.961525
H   48.679550   62.288746    4.372658
H   49.134830   46.671074   53.387024
H   59.735420   78.779259   76.615341
H   38.051231   60.044926   62.399979
H   59.912102   31.679939   50.934708
H   37.726887   69.562607    6.586597
H   94.100410   61.503155   38.622242
H   68.174454   47.365765   31.162367
H   53.528275   25.829615   65.089256
H   75.688515   42.627121   38.248592
H   92.730537   96.732117   55.265125
H   88.755188   98.693199   18.927925
H    7.571609   25.957005   73.288177
H   60.408958   95.200272   89.685501
H   32.351234   11.666371   43.347427
H   41.925976   37.509563   13.943177
H   66.636688   33.197121   61.960087
H   83.476494   23.300167   59.905178
H   63.147545   38.923943   55.421219
H   79.713203   29.817743   91.298721
H    2.117950   23.024183   88.238571
H   56.546051   99.283730   94.320511
H   28.020102   75.181519   42.179268
H   54.966072   45.419487   71.198410
H   87.680870   55.030926   22.805906
H   52.955654    0.071907   91.080421
H   56.649158   30.824472   44.268745
H   56.343449   15.439852   89.109154
H   21.972746   71.115257   66.769699
H   66.744591   60.399204   47.418278
H   43.396000   81.576500   73.956253
H   99.802818   82.979492   46.180042
H   49.288757   33.303894   89.732903
H   31.581722   75.424782   17.776285
H   85.679840   29.276728   16.936110
H   96.003616   10.484694   26.312286
H   19.747034   33.338478   41.258522
H   81.004974   92.922745   63.379715
H   43.910950   21.076418   61.935463
H   30.470860   77.518066    8.204343
H   82.581802   87.981026   62.513142
H   29.773067    9.812376    7.212551
H    6.363838   74.314186   99.917648
H   76.805725   52.391129   74.254219
H    9.640769    5.260023   76.975159
H   81.676613   45.432137   61.366314
H   31.277353   15.710776   61.111889
H   45.804161   28.945904   59.328266
H   53.991623    9.815460   38.057640
H   69.847961   46.122360   97.631195
H   60.174751   62.858795   38.784245
H   13.345942   86.874634   99.244652
H   79.978180   21.950710   11.798359
H   87.319633   26.105894   87.433128
H   56.091240   31.415472   49.069805
H   71.712669   32.420792   64.852562
H   43.820908   57.708168   25.500219
H   23.500912   23.345316   22.020245
H   54.926941   47.795750   39.411888
H    3.991722    2.861209   53.099220
H   49.002926   49.434612   96.416527
H   87.483627   56.949478   23.887156
H   41.052792   39.770874   15.437119
H   84.175056   78.854469   85.501617
H   57.478180   27.035469   58.915680
H    6.455307   80.608803   77.058235
H   97.257225   61.717453   16.431608
H   87.314117   49.332916   75.491341
H   96.108101   85.710960   12.262415
H   94.108780   29.129257   93.854683
H    3.742759   78.617264   74.599930
H   22.419565   42.013691   70.638420
H   10.271683   86.000839   69.617691
H   35.509510   31.392843   58.161163
H   22.912212   75.240112   60.849480
H   54.818405   18.806932   66.832184
H    7.979554   79.472298   25.158203
H   14.017531   32.823730   24.867622
H   15.914852   45.247356   81.875809
H   60.218735   28.666630   10.065357
