100
TIME:    1.750, STEP:  1750
H   98.977448   61.537399   97.543839
H   52.590828   99.626518   88.389763
H    9.835775   99.806618    2.792380
H   81.770340   60.550255   44.240162
H   79.496460   13.027730   18.254948
H    0.879172   99.312187   52.054585
H   61.251293   79.506386   27.305138
H   82.339745   39.998882   47.515343
H   10.609657   18.038162   89.930626
H   27.016451   41.510765   76.219017
H   37.474289   36.657398   71.179901
H   89.047119   11.409006   68.362160
H   31.945248   55.829979   51.192719
H   68.431877   99.681862   90.415428
H    1.785823   13.710285   66.653183
H   31.161285   58.669266   87.776138
H   83.370087   97.727280   32.688293
H   38.541168    9.598167   38.877243
H   72.518761   51.769455   55.557896
H   45.369278   68.648788   35.480751
H   60.429153   81.999451    9.746689
H   30.149357   46.409737   70.246498
H   62.379005   80.389580   82.280167
H   56.447563   57.670231   77.104523
H   66.993889   47.382835   49.473938
H   38.634769   75.463089   25.145144
H   11.173950   69.733475   34.693119
H   84.881912   38.123791   24.617605
H   49.223007    7.865905   74.449059
H   68.096138   47.527573   22.508385
H   84.941780   78.976288   70.932434
H   76.253296    4.163660   37.257790
H   93.624954   40.443535   55.450775
H   52.043144   13.345583   98.027145
H   37.272835   26.633705   31.291168
H   24.710629   21.955194   14.623712
H   47.646477   40.448097   46.358402
H   91.661034   26.924145   45.933453
H   72.048264   43.150658   74.398315
H   98.363319   48.354473   75.721207
H   15.648575   16.230169   83.573776
H   74.341156   90.398262   85.018112
H   26.314611   73.994171   27.878010
H   67.609962   42.100655   51.839252
H    4.856388   62.842342    5.862036
H   55.510113   96.295357   90.276772
H   54.558460   20.142878   42.576851
H   56.332874   13.401270   76.858025
H   16.185560   87.514549   74.667221
H   62.592892   57.385517   61.266132
H   43.411106    0.691917   71.868576
H   90.180168    1.351722   59.178928
H   45.181381   32.155823    1.231830
H   36.166454   78.654488    9.039614
H    1.441770   11.918947   15.256132
H   95.755875   10.692781   33.052673
H    7.195026   39.051643   22.427130
H   95.748627   11.621518   68.479568
H   28.295670   12.709996   77.135529
H   43.536213   62.299908   13.835557
H   70.091995   97.189766   77.951530
H   36.800232   11.655710   16.171684
H   92.933914   87.816109   13.501494
H   63.210052   51.314056   79.629005
H    1.781645   21.074173   58.536083
H   93.840126   55.275337   49.659008
H   47.163071    8.865779   51.552685
H   59.481316   17.621540   49.862720
H   44.122742   24.042480   50.476448
H   65.835754   36.162842   98.048126
H   66.461952   76.330635   41.158939
H   29.671907   93.445831   84.748741
H   92.887939   31.744061   16.875553
H   91.676262   38.636131   99.200859
H   46.545631   31.133741   34.060284
H   67.032768   19.730803   78.176231
H   25.843275   74.869370   21.997847
H   14.198512   36.292336   11.085034
H   45.435715   48.375828   37.203362
H   13.702288   13.644781   70.157143
H   45.128185   47.386211   84.582329
H   72.628189   55.656387   40.443924
H   28.525219   36.465637   96.578827
H   70.555305   61.911358    3.586769
H   67.118958   39.421043   78.109619
H   11.012783   73.336678   63.308571
H   84.033257   76.113663    6.989892
H   84.126709   65.185364   77.551826
H   91.999214   96.735466   13.882177
H   11.614578   37.276031   86.775917
H   95.639717   67.925095   70.418533
H    7.769355   27.122252   66.864891
H   97.567955   80.067123   54.300003
H   16.371464   19.382658   44.811813
H   26.336033   92.974792   56.299492
H   38.464432   26.625147   77.059082
H   23.695484   68.109413   36.545258
H   13.290545   31.137878   28.036148
H   25.346413   44.393856   98.462418
H   47.922287   33.752392   29.136063
