200
TIME:    0.309, STEP:   309
H   11.591410   62.245998   16.519434
H   28.579285   33.885487   92.698303
H   16.691462   72.158272   48.746819
H   20.168398   77.780251   42.695362
H   14.477552   85.478043   52.666447
H   87.373901   50.942226   63.506954
H    4.358909   55.255173   50.986912
H    4.434878   91.865967   22.623123
H   90.230652   86.471794   46.036163
H    8.432262   73.932365   93.350822
H   14.598729   96.068184   95.142136
H   31.063126   43.864552   16.030018
H   12.867694   89.297844   58.463707
H    1.142199   53.498051   45.590725
H   16.290501   72.475754   42.808819
H   27.289169   23.123390   52.834530
H   87.453369   10.950109   12.081991
H   34.923672   86.484062   42.291946
H   67.321175   27.203882   43.499577
H   90.275772   78.757103   34.795940
H   58.913147   80.202675   22.679272
H   88.492912   51.451775   67.915703
H   92.938980   62.039772   47.480591
H   10.069728   88.688263   91.369720
H    6.245556   15.479100   42.948246
H   18.603975   65.398369    4.677641
H    0.231862   60.181263   51.856140
H   96.093781   72.975830    0.912828
H   13.974740   54.432442   37.934330
H   89.931389   22.612766   96.239075
H   13.271407   54.331974   16.279173
H   30.671310   65.123520   95.301910
H   25.456100   10.470263   74.021965
H   94.142906   63.653198   39.496346
H   44.677204   86.949875   33.694241
H   30.807354   48.348721   80.267700
H   88.244888   72.939735   86.472939
H   29.501905   46.540169   12.065069
H   50.516548   43.929825   45.965382
H   89.421028   39.404743   61.001068
H   80.524841    2.000592    3.814540
H   16.773729   41.660000   37.785175
H   75.459488   86.196854   52.890408
H   37.127548   66.585136   21.216099
H   31.134483   78.400337   46.853920
H   40.088795   12.042785   43.438301
H   81.274429   22.831722   97.691963
H   88.435989   65.549553   45.167130
H   89.748833   26.133709   61.216080
H   59.648186   18.112886    2.793218
H   76.566833   69.622772   25.134201
H   18.500448   36.885601   65.025200
H   54.037426   92.447601    8.830920
H   21.379663   83.639801   82.724960
H   74.278275   74.850395   88.541824
H    4.421124   70.650223   80.907654
H    5.233567   17.006569   48.914433
H   68.162521   60.183422    4.058075
H   26.725193   75.810379    8.795328
H   41.507423   95.601723   65.718697
H   50.196049   14.030197   40.220547
H   91.176430   16.588339   49.594978
H   73.348244   26.635853   82.557053
H   25.797842   65.250778    5.208064
H   72.457558   77.107712   20.751125
H   36.033070   19.241829   34.103561
H   83.597755   21.706545   87.260689
H   96.955025   91.606804   88.637634
H   18.976826    6.785684   61.106461
H   44.839775   42.832611   50.978909
H   58.434895   77.785545   75.126999
H   30.201269   22.008156   44.281830
H   79.683731   26.855984   97.185265
H   10.113277    7.448040   62.581215
H   79.985214    1.988529   64.368340
H   55.057816   16.640556   62.426586
H   95.135941   32.518902   71.169579
H   23.999563    7.226391   45.608086
H   12.055145   32.767601   33.410236
H   67.236397   90.282127   90.989349
H   46.296619   28.935879    0.109423
H   29.670397   67.349457   85.724144
H   10.730511   14.423173   88.260864
H   22.423981   64.115868   96.100433
H   36.451115    0.053483   55.826778
H   26.611181   83.360123   26.346462
H   38.947720    2.927890    1.929507
H   74.757683   15.976295   14.044719
H   67.798378   72.222282   77.417435
H   23.098530   89.139923   54.106396
H   38.350361   35.488449   80.447578
H   83.574799   89.140854   99.873428
H   50.537498   16.083906   93.764671
H   56.933784   91.954697   70.999283
H   26.873301   55.992844   70.813553
H   66.414619   29.251995   25.817436
H   80.241585   11.892611    1.300893
H    4.997841   29.510912   49.246868
H   35.454414   69.086830   53.125774
H   68.404160   99.048676   27.267252
H   12.944735   82.334167   72.188911
H   93.138115   77.700478   65.483994
H   24.609701   34.648361   31.467127
H   25.191479   68.066879   92.902428
H   25.247272   26.565960   27.324593
H   90.154739   23.394661   40.660343
H   68.926895   30.953543   55.938110
H   64.344795   36.923626   16.073536
H   74.550095   39.218678    2.469090
H    6.583259   27.098341    5.874968
H   48.102367   95.467178    0.844397
H   88.764549   65.080505   91.297119
H   55.895626   81.075356   92.434525
H   62.990440   17.909792   73.174652
H   61.547661   84.841812   24.353327
H   11.222563    3.778725   82.047157
H   29.738018    9.414299   84.984482
H   40.421040   30.392731   32.599266
H   21.482769   60.304165   80.129456
H   72.603546   48.051998   51.916729
H   41.274727   22.217953   85.258820
H   15.311882   25.845470   50.217808
H   33.899910   18.912472   26.076035
H    3.060698   64.835663   14.843612
H   74.851723    7.243690   90.531067
H   50.250256   64.240433   24.199127
H   93.671532   49.512100   68.389984
H   73.919403   88.111137   35.585331
H   93.316849   49.986031   83.317825
H   71.089592   23.822302   67.677124
H   51.394287   82.722015    6.048222
H   79.051544   86.735733   10.954175
H   92.212440   85.951767   97.888420
H   97.537209   14.772084   50.556484
H    7.834739    0.122510   53.246208
H   60.520317    1.538295   82.665070
H   69.006950   86.740349   58.773605
H   91.806892   62.066544   82.108139
H   48.116776   45.298576   71.533768
H   43.485321    5.780605   93.540237
H   54.033649   61.039547   17.138809
H   54.061829   43.107327   47.855392
H   52.787395   58.030998   97.056908
H   54.551353   24.029924   79.267830
H   43.545261   67.478691   51.324818
H   48.468304   63.164669   26.541515
H   46.363182   96.475624   46.787842
H   40.768356   70.850250   68.429100
H   67.029877   61.911472   97.258522
H   11.661464   89.428116   87.414803
H   73.788124   62.481777   50.823296
H   36.691936    5.200511   45.990025
H   79.381172   29.258564    1.042257
H   11.733899    2.726537   74.247421
H   16.348648   55.701271   62.001637
H   65.550430   43.699993   56.183781
H   60.033520   62.952713   81.572800
H   47.027065   35.552818   11.340662
H    9.223826    1.474342    0.046138
H   62.906090   54.128479   80.889008
H   54.633724   81.606155   81.581284
H   40.364468   22.698725   34.946217
H   68.189461   31.561651   37.203362
H   13.807391   22.206673   68.246582
H   58.293518   24.429651   10.502519
H   13.102502   62.243828   61.924637
H   73.711685   96.450935   52.953171
H   23.692490   34.071918   50.865955
H   95.010529   27.945820   36.694004
H   29.621784    9.939011   89.626343
H   78.046814    6.454389   35.970284
H   43.779274   62.884342   57.670002
H   39.006123   74.489395   88.482559
H   70.375725   72.890244   75.842209
H   68.230865   94.517487   95.987045
H    3.037715   48.033562   23.352943
H   34.708908   55.076611   89.794373
H    2.341531    9.266663   65.762497
H   73.836983   19.775537   68.327827
H   83.018250   55.195259   87.358368
H   80.158073   87.662048   40.115009
H   20.619411   30.190273   72.135124
H   62.458549   90.094162    7.435683
H   52.983345   25.348129   79.728722
H   86.415260   85.341637   78.112564
H    0.704931   36.806000   84.299538
H   33.754608    3.342646    0.793973
H   87.106133   70.147285   27.940878
H    4.620188   61.481102   67.332001
H   50.868313   57.897968   66.574783
H   51.116501   28.741489   78.808723
H   47.087269   86.804337   23.745516
H    5.633134   19.165560   59.386814
H   33.898045   66.284874   34.703842
H   82.526733   51.173363   21.590578
H   75.496597   10.552758   28.621038
H    9.919930   87.440865    5.795697
H   26.904194   96.034836   45.020771
H   10.993179   11.804962   74.931145
H    7.288076   32.655136   96.790169
