100
TIME:    2.396, STEP:  2396
H   55.290436    2.295987   96.952408
H   34.621193   34.651833   29.138876
H   20.939886   46.281540   95.210884
H   81.878769   33.935875    8.829615
H   73.710297   64.807480    0.740133
H   90.864021   98.612328   16.029505
H   27.396481   23.126663   77.823174
H   31.565422   95.886963   88.201088
H   94.729683   55.927780   49.267979
H    9.364710   50.786369    1.512798
H   77.384949   62.650776    8.954985
H   64.394318   43.789658   22.378942
H   90.852959   16.746269   86.986015
H   36.445335   97.690712   39.577122
H    9.644058   56.006744   35.598564
H    5.185984    2.166087   34.153091
H   31.432617   40.448311   91.503448
H   52.346146   78.183083   16.480026
H   82.582939   78.869064   89.593506
H   27.966431   54.930859   79.463478
H   22.094589   17.687672   92.212158
H   92.087204   47.264709   15.236710
H   53.753975   75.135704   63.797958
H   96.427124   65.417969   29.126053
H   43.888664   96.149780   54.239883
H   35.672688   56.214016   64.593788
H   55.469772   42.878643   47.512379
H   30.374689   68.276894   45.971478
H   63.269485   66.475838   43.911522
H   92.867226   31.539230   73.863823
H   10.354772   36.908260   19.816784
H   17.041908   86.313316   77.454353
H   39.128620   93.179939   13.647557
H   79.337669   54.143631   70.811478
H   21.213837   77.800842   70.627068
H   80.877151   72.703545   12.403382
H    9.606931   16.789286   97.260864
H   64.957939   15.100460   91.520943
H   43.937775   29.210817   12.122160
H   37.517109   87.877724   26.546106
H   71.500023   38.395786   98.793259
H   16.282379   19.391006   15.367615
H   31.878988   77.868042   74.538292
H   26.358011   52.928764   15.002513
H   48.819904   37.356609   61.143288
H   47.175869    8.616810   92.898781
H   60.449955   55.140533   48.456795
H   56.367374   20.052401   16.828789
H   35.066986   34.012554   48.897667
H   76.137169   67.216438   16.085758
H   43.361820   38.325523   78.679886
H   21.573591   41.408298   16.768421
H   58.582214   35.901550   63.715286
H   21.208187   68.117165   37.544586
H   50.015411   68.552094   20.736891
H   96.564163   10.013868   11.061310
H   48.146938   20.411720   83.866920
H   47.645599   50.615128   51.840652
H   79.243965   40.006115   27.540667
H    0.908495   11.951864   95.462654
H   10.841902   67.145088   27.584919
H   13.874386    5.641600   86.942932
H   36.751827   43.764381   69.183273
H    7.567947   54.828140   62.092548
H   27.422752   69.480408   18.695650
H   54.155128   23.160652   87.855568
H   95.332527   31.199286   82.740799
H   14.857840   54.567200   80.745255
H   76.319328   77.625053    9.958703
H   78.926086   68.656319   96.687836
H   45.949165   32.376289   33.408871
H   76.405457   72.006470   32.045227
H   50.768219   99.791985    0.310635
H   77.462212   97.755325   60.807152
H   77.691551   32.053066   83.030746
H   82.301537   61.135147   34.709400
H   84.496429   18.877203   33.424473
H   44.548763   94.051872   46.762920
H   76.408691   46.480923   44.411316
H   82.020943   78.463531   14.503551
H   57.770016   54.069378   23.191895
H   21.097672   59.875259   86.425148
H   69.397354   47.249390   58.107029
H   14.992814   17.190401   44.581696
H   35.664703   99.012115   15.486979
H   96.144836   97.062904    8.168727
H   27.178152   29.144211   37.793915
H   94.526031   13.464813   70.829231
H    5.405725   60.766624    8.597498
H   54.500538   10.696152    9.869868
H   22.076843    2.809423   84.060867
H   55.569950   75.703423   79.176506
H   39.015507   99.426620    4.276000
H   78.810585   58.569073   88.368507
H   15.165386   35.110695   71.144402
H   91.821335    1.116521   43.692535
H   72.419205    5.182118   99.393120
H   15.662429   36.638184   17.698433
H   94.573692   47.178509   44.348305
H   88.041000   17.160038   66.916656
