100
TIME:    9.246, STEP:  9246
H   92.053131   74.119392   90.681046
H   45.123795    5.890201   61.096195
H   38.701130   39.097740   14.806347
H   83.028519   51.715691   33.357498
H   12.347101   13.864706   15.009096
H   84.639404   91.191216   94.408081
H   68.385704   85.672112   13.502422
H   93.168930   88.498581   59.257637
H   26.343544   97.326645   18.084070
H   22.217787   49.143864   69.739021
H   40.214630   38.273804   49.126366
H    2.945297   87.144936   34.788155
H   54.162949    2.341038    6.265836
H   97.275375   76.577126   60.865932
H   92.907906   44.134529    6.261600
H   29.762238    3.039901   65.542053
H   80.598640   93.522392   15.088209
H   98.786514   44.928490   79.013748
H   89.276642   66.236359   50.475742
H   43.411213    9.464804   45.843254
H   15.605951   35.748962    6.291890
H   48.803371   56.358185   31.895950
H   62.294777   19.431002   67.811478
H   59.972019   47.437225   20.385504
H   98.895248   52.907211    4.821472
H    4.010151   53.531418   20.791872
H   64.787132   58.133396   83.421677
H   52.390457   88.011734   72.397667
H   12.216462   87.961662   20.108467
H   55.525475   62.000961   18.419025
H   79.944649   51.161968   77.865005
H   49.555347   97.056396   43.315529
H   21.632538   92.001434   30.749655
H   68.767563   26.381866   82.232552
H   50.848396   59.618050   87.586761
H   76.376572    9.618684   90.358833
H   66.609833   65.926521   37.013874
H   81.837181   89.746712   74.905067
H   54.796970   79.963097   48.306107
H   92.323685   46.604088   65.491837
H    3.353357   73.433563   60.176235
H   21.011505   77.861359   51.984638
H   90.858246   18.952671   69.320000
H   88.959145   67.843178   84.758736
H   54.633179   67.104088   47.318172
H   58.777344   39.264111   20.724226
H   13.978532   27.667810   14.222363
H   56.751949   90.600800   40.667240
H   35.299515   66.695534   75.648499
H   19.857267   71.467216   37.052410
H   42.866718   77.001701   50.896393
H   54.484844    5.778465   67.093697
H    0.653071   75.620178   65.880814
H   62.571274   56.350746   39.815987
H    4.614215   68.880920   78.981506
H    5.111641    2.807829   77.871124
H   82.407944   22.757301   35.359077
H   37.579285    3.716194   75.399071
H   19.491158   29.445665    1.669538
H   48.877399   38.466793    0.632359
H   42.947041   48.588589   93.507256
H   70.759300   41.881607   77.003868
H    1.771083   76.352440   99.444489
H   77.946777   92.129883   76.112076
H   99.311722   22.380512   56.608494
H   33.352364   82.627617   92.880043
H   45.744888   68.018066   13.458813
H   41.681381   46.326424    8.214874
H   17.720606   85.427750   80.340149
H   17.806442   13.047962   82.233002
H   28.423332   66.301918   51.243477
H   11.881923   44.597069   33.774113
H    4.135375   60.963779   24.681591
H   26.669338   64.239174   53.787453
H    7.860501   41.929478    2.339663
H   44.240044    0.154176   73.789993
H    6.516636   25.535427   54.724060
H   66.365929   46.154198   25.071686
H    4.893928   26.360302   20.842356
H   46.092491    5.345437   24.369957
H   91.821327   24.936472   32.604240
H   35.108582    4.436613   13.483904
H    2.703157   61.744053   10.484792
H   86.258934    3.359188   18.938511
H    2.128036   70.526352   51.457611
H   38.495251   48.675827   83.853424
H   84.674278   31.092644   64.428139
H    4.729785   65.201698   99.711609
H   47.566166   79.369987   52.570442
H   48.868671   28.870697   54.737236
H    2.407152   72.686325   28.720726
H   62.409267   90.867310    9.701859
H   78.139984    4.939611   34.011955
H   40.855125   74.117050   50.241131
H   96.731583   21.529018   28.548189
H   57.603287   30.616896   89.880829
H   28.698059   98.287926    5.441910
H   20.430391   43.952099   93.264244
H   68.254936   76.728661   70.588860
H   13.516838   41.366703    7.042891
