100
TIME:    6.311, STEP:  6311
H   90.535477   43.271263   93.368118
H   26.180408   46.848560   76.035011
H   88.245682   27.942162   49.262661
H   82.535889   72.636932   94.234985
H   38.643997   78.611908   94.588913
H   30.153400   94.370918    3.745390
H   22.211143   87.486412   83.981499
H   23.854141   34.583500   28.738682
H   98.491447   79.516418    2.831210
H    2.383810    7.000474   54.818913
H   13.221176   20.179083   31.842361
H   14.966614   40.028309   43.704811
H   41.348831   79.951576   97.928886
H   42.597496   85.623604   37.510273
H   57.259407    6.303192   47.405994
H   47.772629   59.745888    9.172662
H   16.614174   99.395348   47.903572
H   36.024899   87.745926   80.752968
H   43.561634   43.108383   95.851059
H   22.488525   71.789345   46.014824
H   89.773041   27.937298   85.951485
H   67.422058   52.461929   81.838348
H    1.481396   43.295265   51.785706
H   32.674770   12.326143   38.363636
H    3.867377   85.665894   83.148048
H   17.777224   40.090889   96.959526
H   17.873940   80.136978   25.186850
H    0.038522   51.015846   75.382339
H   48.397682   21.675251   58.847595
H   42.984348   34.642723   85.095261
H   64.435265   87.975166   10.072701
H   64.237640   78.144363   15.023140
H   14.895119    6.739911   66.341675
H   44.756981   95.357315    5.879493
H   23.892929   81.838814    9.016486
H   21.242029   79.733177   99.584450
H   85.105873   73.412720    5.747478
H    3.148536   43.459934   67.790154
H   78.683685   43.909843   32.729118
H   68.766953   21.368366   34.570553
H    3.939957   72.727165   91.030128
H   68.357254   66.351730    2.148149
H   65.599762    1.345623   57.323326
H   76.364349   18.572714   97.792320
H    9.223625   82.891861   96.159164
H   96.661980   83.289505    8.800341
H   91.039352   68.051590   86.044441
H   56.576458   60.371231   59.066837
H   49.505074    9.773552   92.725204
H   58.241596   26.789583   42.266907
H   43.068249   60.357254   19.954632
H   11.836369   78.126160   59.758308
H   39.781796   58.602051   36.335590
H   30.543671    4.230502   10.303710
H   38.304131   11.670468   54.027569
H    1.456102    5.895164   77.785461
H   96.342628    7.445304   56.216087
H   56.125397   80.891289   50.999008
H   88.012161    5.424325   26.987190
H   42.557411   12.871953   84.110741
H   57.803486   85.080826   22.341076
H   74.928200   69.200180    9.800159
H    2.513718   76.631630    0.706238
H   76.405441   76.141800   55.798611
H   82.817703   56.795956   83.284737
H   13.652164   28.534447   19.339415
H   81.224930   66.547546   71.757156
H   44.421898   78.469887   67.904892
H   71.442757   96.318130   64.419281
H   58.242363   65.568779   88.443970
H   21.629925   66.000671   86.444130
H   53.595646   42.075272   18.683296
H   95.501709    6.139671   99.931458
H   91.280495   49.995365   28.174860
H   66.447990   37.638584   79.814468
H   74.855553   12.048248   71.278229
H   39.956631   79.567894    2.668046
H   28.482586   38.059448   62.974335
H   64.146400   34.981327   88.093300
H   90.028030   65.229622   77.222923
H   34.368973   94.571854   57.182575
H   14.869762   85.398621   59.025349
H   17.059288   12.660573   30.971169
H   84.336067   52.205223   87.004845
H   45.036232   54.129494   35.971634
H    6.040559   40.867828   80.038132
H   88.652138   44.491676   24.476309
H   57.527245    0.060732   30.142555
H   86.653671   42.785439   76.574959
H    8.361104   49.625553   49.818993
H   82.294762   14.208103   66.738571
H   45.248989   70.126892   53.773636
H   90.000839   16.880009    7.043895
H   57.200283   96.054268   52.340012
H   47.479118   84.428665   61.106083
H   15.184356   46.516693   41.477692
H   61.664787   29.854986   74.237869
H   26.095636   98.727783   52.186951
H    8.071637   64.054634   16.424339
H   31.211611   16.684807   89.781654
