100
TIME:    9.311, STEP:  9311
H   87.657379   68.158546   90.621536
H   43.328598    9.412567   65.194756
H   39.818417   43.774178   14.043264
H   83.039429   49.037773   29.794535
H   11.764654   19.074692   13.246754
H   83.631714   91.120796    0.845035
H   64.978798   90.060921   18.585506
H   88.060059   94.122208   53.289352
H   24.745720   91.077179   13.992559
H   20.442179   50.077168   72.284035
H   34.168488   40.889236   42.864998
H    0.464264   90.403069   30.161407
H   50.018127   98.406715   99.806396
H   94.056915   76.376778   65.812462
H   93.697395   38.328407    3.135813
H   27.148540   97.354721   60.146545
H   75.371742   97.821938   21.005415
H    0.176989   41.765572   76.760330
H   90.289291   68.962875   53.900005
H   41.660152    8.084436   50.268761
H   11.748634   29.277929    4.527502
H   55.034985   56.444473   26.360596
H   61.426933   18.902609   65.951813
H   53.932323   48.214813   15.558050
H   96.570419   47.752220    5.301265
H    3.703524   51.615219   14.675062
H   59.181923   55.431179   84.711044
H   46.906181   91.045715   74.545952
H   13.629931   93.859032   17.036053
H   58.017921   60.392227   23.586166
H   82.502556   56.990406   72.722412
H   53.659504   95.260208   37.298149
H   26.211281   87.245651   36.605370
H   71.513916   20.424988   79.494133
H   49.230736   54.696632   91.541153
H   82.026978   14.709950   90.154518
H   72.844421   63.546150   42.135639
H   79.150337   88.557518   79.492241
H   52.053097   78.546776   42.007050
H   86.201172   40.518768   70.605667
H   98.911133   75.664169   61.707607
H   15.533665   78.116257   55.302776
H   91.417633   19.342705   74.015282
H   84.809364   68.934181   91.114326
H   48.995171   64.540230   52.880802
H   57.938759   40.503887   20.988298
H   14.486716   31.202909   14.846590
H   56.755917   91.270279   44.689075
H   37.199348   61.312176   73.055878
H   21.221518   72.457054   32.507389
H   43.126499   70.747322   51.176849
H   57.643795   99.746918   62.826881
H    2.001312   75.997070   62.105797
H   61.066185   55.289993   42.684334
H   99.438728   74.576950   79.533951
H    5.192598    2.739455   75.658371
H   86.528961   20.881767   41.541100
H   32.739197   97.577690   73.724876
H   24.617634   32.192284   96.679604
H   44.588268   43.463093   98.783607
H   47.047726   45.566013   88.440041
H   68.452324   41.276596   74.063118
H    6.183991   71.917015   94.987244
H   82.409973   92.483963   74.347626
H    1.891640   17.188824   62.661579
H   29.359455   79.396263   96.723351
H   40.529892   70.265533   16.597183
H   37.191406   50.043770   11.322250
H   20.960390   80.757263   76.263763
H   19.126556   16.312654   82.095139
H   26.359104   61.879147   50.463905
H    6.529435   42.438866   38.538326
H   99.897263   57.748791   23.014835
H   25.238636   60.125568   49.925301
H   10.991433   42.025188    7.267910
H   45.776871    4.320101   69.416061
H   12.420096   19.909321   55.877052
H   69.419746   41.904243   28.661583
H    8.010789   26.169376   21.567873
H   42.904778    1.804450   18.770134
H   93.093834   25.608927   36.489204
H   39.985863    4.858571    8.045996
H    6.814567   62.831089   16.675243
H   90.731056    8.921446   13.001902
H   98.963135   66.459885   45.156570
H   36.999088   51.063637   88.367203
H   89.015480   26.366615   67.527580
H    5.775103   60.000587   99.038162
H   48.915043   75.750832   52.038826
H   43.121563   26.196251   57.060577
H    5.067322   76.196381   30.093407
H   67.218613   95.755997   10.940148
H   82.306625    6.890028   39.038506
H   46.872597   78.039597   55.028866
H   95.607849   15.706532   30.041624
H   62.972015   28.050310   86.523514
H   23.538853    2.018099    1.703611
H   20.304926   47.168079   91.959007
H   65.158470   77.009346   65.144753
H   17.554123   39.698956    0.781135
