100
TIME:    9.334, STEP:  9334
H   86.101959   66.049324   90.600479
H   42.693375   10.658930   66.644890
H   40.213764   45.428917   13.773251
H   83.043289   48.090202   28.533827
H   11.558558   20.918243   12.623156
H   83.275146   91.095879    3.122813
H   63.773312   91.613884   20.384136
H   86.252304   96.112106   51.177498
H   24.180336   88.865829   12.544794
H   19.813887   50.407413   73.184578
H   32.029083   41.814697   40.649437
H   99.586433   91.555946   28.524303
H   48.551498   97.014488   97.520645
H   92.918076   76.305885   67.562660
H   93.976753   36.273933    2.029766
H   26.223694   95.343063   58.237366
H   73.522224   99.343315   23.099195
H    0.668854   40.646385   75.962967
H   90.647614   69.927643   55.111668
H   41.040546    7.595999   51.834709
H   10.383738   26.988230    3.903182
H   57.240017   56.475006   24.401932
H   61.119850   18.715639   65.293777
H   51.795200   48.489960   13.849834
H   95.747787   45.928146    5.471038
H    3.595025   50.937180   12.510653
H   57.198517   54.475010   85.167282
H   44.965591   92.119278   75.306114
H   14.130082   95.945793   15.948891
H   58.899864   59.822983   25.414539
H   83.407661   59.052776   70.902725
H   55.111744   94.624634   35.168922
H   27.831451   85.562836   38.677391
H   72.485703   18.317169   78.525154
H   48.658333   52.955208   92.940399
H   84.026352   16.511477   90.082222
H   75.050507   62.703865   43.947956
H   78.199608   88.136726   81.115395
H   51.082188   78.045616   39.778152
H   84.034744   38.365501   72.415176
H   97.339218   76.453461   62.249477
H   13.595312   78.206451   56.476887
H   91.615570   19.480717   75.676689
H   83.340981   69.320229   93.363228
H   47.000183   63.632946   54.849117
H   57.642029   40.942577   21.081739
H   14.666535   32.453823   15.067471
H   56.757320   91.507172   46.112186
H   37.871597   59.407383   72.138489
H   21.704252   72.807304   30.899212
H   43.254597   68.536674   51.220016
H   58.761578   97.612778   61.317085
H    2.478377   76.130432   60.769897
H   60.533615   54.914650   43.699287
H   97.607460   76.592468   79.729431
H    5.221245    2.715261   74.875397
H   87.987167   20.218117   43.728584
H   31.026602   95.405647   73.132469
H   26.431618   33.164246   94.913963
H   43.070576   45.231014   98.129433
H   48.498737   44.496487   86.647026
H   67.636009   41.062515   73.022545
H    7.745487   70.347557   93.410065
H   83.989258   92.609253   73.723282
H    2.804565   15.351765   64.803444
H   27.946609   78.252861   98.083290
H   38.684586   71.060791   17.707684
H   35.602646   51.359138   12.421783
H   22.106775   79.104630   74.821350
H   19.593674   17.467813   82.046356
H   25.628685   60.314075   50.188057
H    4.635478   41.675194   40.224125
H   98.397644   56.611179   22.425060
H   24.732388   58.669994   48.558693
H   12.099301   42.059055    9.011747
H   46.320671    5.794188   67.868362
H   14.509007   17.918545   56.285034
H   70.500328   40.400414   29.931854
H    9.113700   26.101818   21.824594
H   41.776817    0.551491   16.788658
H   93.544106   25.846872   37.863884
H   41.711670    5.007879    6.121834
H    8.269369   63.215733   18.865711
H   92.313499   10.889629   10.901234
H   97.843246   65.020981   42.926971
H   36.469677   51.908554   89.964386
H   90.551598   24.694328   68.624306
H    6.144984   58.160194   98.799866
H   49.392338   74.470207   51.850716
H   41.087971   25.249908   57.882683
H    6.008620   77.438400   30.579124
H   68.920380   97.485840   11.378312
H   83.780975    7.580175   40.817131
H   48.965675   79.425156   56.779064
H   95.210220   13.646267   30.570070
H   64.871719   27.142134   85.335541
H   21.713287    3.337986    0.380828
H   20.260530   48.306042   91.497154
H   64.062798   77.108665   63.218304
H   18.982674   39.108829   98.565521
