100
TIME:    6.117, STEP:  6117
H    3.654979   61.062096   93.545731
H   31.537640   36.335392   63.803417
H   84.909531   13.985534   51.540539
H   82.503326   80.629486    4.868520
H   40.381638   63.061951   99.849197
H   33.162449   94.581093   84.533501
H   32.378681   74.387505   68.810448
H   39.102158   17.800617   46.551716
H    3.260384   98.168671   15.043166
H    7.683317    4.214736   47.223026
H   31.266586   12.373194   50.528664
H   22.371567   30.304035   57.514168
H   53.728409   91.682869   17.205742
H   52.203362   86.221565   22.746250
H   54.903069   23.632236   56.735081
H   55.572769   76.713783   25.276760
H   32.214455   86.562859   30.242987
H   31.876173   97.186020   87.478554
H   40.540745   34.969299   85.629471
H   27.714767   75.909950   32.806389
H    1.285274   47.251156   91.217690
H   48.823090   52.204391   98.359253
H    4.071842   44.873055   57.336090
H   50.700939   10.005342   52.772434
H   10.805726    1.050186   81.715309
H   18.661585   45.826286   15.202572
H   34.602913   88.200577   21.337103
H   16.407356   41.960579   68.970535
H   44.179390    4.074362   68.018311
H   35.545353   39.444176   69.672592
H   56.799500   70.578041   25.421364
H   51.988316   83.505295   32.982704
H    1.229702   20.933371   48.864624
H   36.560173   13.136100   14.051928
H   28.719772   96.520821   97.210602
H    4.378265   64.538445    0.194348
H   66.498024   80.517212   90.461098
H   11.166632   47.010700   54.100277
H   86.871613   48.137016   51.529381
H   87.040298   39.530270   19.306871
H   17.198032   66.069664   86.459572
H   84.706467   65.590958   92.243492
H   63.930141    0.181843   43.311195
H   88.752808   15.316488   78.823326
H   26.051651   90.546951   79.558334
H   99.166313   79.589249    8.012186
H   89.523727   57.501419   84.182472
H   56.566097   58.373093   47.063206
H   43.834801   25.840065    0.463245
H   54.169834   23.836039   55.832047
H   43.081570   79.086472   17.909870
H    2.407858   96.127304   72.493111
H   35.757397   57.477173   47.603611
H   35.035782    7.396071    1.743535
H   53.750481   94.669250   52.377254
H    1.214475    6.099233   84.389679
H   84.042976   13.043422   37.765129
H   70.571198   99.211998   55.995834
H   72.710861   97.226784   41.879982
H   55.358818   97.960205   89.628563
H   45.565998   94.103531   37.466244
H   81.813637   71.005905   18.578384
H   89.343605   89.869667   14.009399
H   63.084419   75.085007   61.066296
H   75.118210   72.290359   65.218605
H   25.569210   38.178795    7.868358
H   96.789688   59.840641   62.391068
H   57.822746   67.375038   58.630573
H   61.774387   10.257713   76.585724
H   54.312691   55.810699   88.852478
H   27.790852   79.200226   88.770851
H   69.591629   48.513718    4.479491
H    8.151054   15.735176    4.905991
H   95.552071   62.272816   39.701653
H   57.094837   37.361805   65.108170
H   70.270195   99.614555   84.332733
H   22.338554   96.364845   99.230125
H   19.368114   50.745407   52.259872
H   54.843929   35.551167   85.929390
H   99.542130   75.797554   93.936241
H   30.572512   92.564835   45.587452
H    0.310827   84.140396   75.253868
H    4.787807    9.416558   12.495119
H   70.988503   35.604393    4.724298
H   54.482246   66.264580   54.777817
H   10.505947   33.741135   66.566238
H   75.695320   58.597054   15.225668
H   54.407188   15.584787   32.154015
H   82.627792   53.587227   78.161629
H   25.513437   57.607746   42.884712
H   74.355492    3.732751   62.641644
H   30.894953   55.536041   50.077820
H   77.565018   11.058766   92.041580
H   38.451824   84.284492   39.258865
H   50.833031    1.805215   56.648014
H   99.160675   54.177704   51.497986
H   77.063774   18.722395   85.394882
H   26.470102   89.127838   56.081100
H   17.313080   63.218281   32.674385
H   19.162096   21.663132    8.469995
