100
TIME:    7.505, STEP:  7505
H    9.789972   33.776192   92.274979
H   93.207443   11.547982   51.320255
H    8.775034   13.843795   35.243145
H   82.736298   23.444855   28.787682
H   27.947721   74.316185   62.213760
H   11.634330   93.077370   21.991085
H   59.631588   68.112350   77.353928
H   30.008095   37.879551   19.109207
H   69.140648   64.718231   27.673462
H   69.771492   24.145678    1.568982
H    2.158213   68.222565   16.830263
H   69.397949   99.877701   58.714836
H   65.180779    7.718500   79.280067
H   83.478737   81.943367   28.373875
H   71.761726   99.649246   89.987091
H   99.762680   55.314270   10.060163
H   20.599770   78.367752   56.598110
H   61.558819   29.645554   39.364838
H   62.154118   93.196198   58.752850
H   90.320145   46.434818   27.307871
H   18.919373    9.070282   53.542835
H   81.891998   54.046982   80.158218
H   85.539635   33.584541   17.623175
H   21.734873   26.609835   49.687706
H   61.162300   90.975616   91.966042
H   12.220623    4.855419   84.628838
H   14.914007   30.502428   48.880650
H   99.292198    6.747718   14.847249
H   74.359749   30.004011    2.407428
H   88.768677    5.090673   80.014763
H   11.423673   95.043839   15.607292
H   39.627468   45.154972    4.488615
H   98.998421   19.380762   73.906624
H   95.205376   85.934303   55.577286
H   94.176811   91.436241   81.662292
H   25.034336   73.252518   95.831337
H   99.626572   29.686892   99.830109
H   53.795578   21.606251   52.047485
H   28.283489   17.895590   17.022076
H   56.305641    9.589990   28.511927
H   22.337790   13.698819   19.159025
H   67.733406   71.034012   63.101933
H   75.875275    8.508150   43.567165
H    0.125107   38.613609   14.534848
H    5.653030   35.783001   98.332710
H   81.248711    6.062261   13.651148
H    0.367700   32.986214   97.504189
H   56.645687   72.669052   32.944393
H   84.408882   10.886585   45.097137
H   83.308838   44.964336   58.783707
H   42.986263   45.084473   32.539597
H   69.871521   67.331329   81.380188
H   64.550316   65.525269   66.991402
H    2.896347   84.752899   62.991165
H   43.235977   16.306973   64.184494
H    2.943228    4.639192   37.138885
H   72.035324   72.992760   69.775383
H   67.217941   68.132713   20.243605
H   82.176811   55.881351   35.327110
H   63.764748    4.646523   50.150536
H   33.122265   29.554783   29.247223
H   32.550819   58.086594   55.778076
H   83.575340   95.154938   18.830078
H   58.395733   82.645981   23.377911
H   30.208401   61.433498   94.476570
H   40.303314   69.177574   89.938019
H   85.428009    7.830699   29.404257
H   61.944069   46.756706   24.985001
H   30.950233   10.524887   89.531891
H   82.447411   25.601488   85.925613
H   83.714363   84.761734   72.124001
H   55.248226    2.403834    6.160292
H   17.651106   47.083889   69.323547
H   64.990486   74.427185   57.231781
H   23.994303   39.365902   70.335861
H    3.077585   88.573021   90.938271
H   48.397175   76.224190   23.843359
H   84.578873   59.987926   28.912561
H   21.405813   31.474171    1.412135
H   31.472225    0.186010   74.358772
H   57.737724    6.925027   28.546494
H    4.466339   93.141693   59.135052
H   92.582680   32.628208   44.681831
H   66.480186   54.378414   77.951042
H   86.898712   79.437767   20.227125
H   78.564560   84.725754   62.953186
H   68.396767   57.677834   81.410667
H   76.730064    4.515963   17.762749
H   11.433236   76.306007   66.809578
H    2.795427    0.498037   92.503067
H   31.158253   78.679344   91.953659
H   33.592899   59.927002   76.525063
H   66.538467   52.707661   99.377754
H   72.594826   68.492516   32.849346
H   26.835857   77.477798   88.543884
H   13.803863   99.368408   79.805809
H   66.890739   98.376480    5.569072
H   23.790934   57.805408   28.219145
H   51.192101   69.210609   16.414463
H    5.376591   86.043228   74.760330
