100
TIME:    5.411, STEP:  5411
H   51.398354   25.805229   94.192093
H   51.036171   98.076828   19.285984
H   72.768692   63.192947   59.830135
H   82.384827    9.716679   43.567963
H   46.705215    6.472951   18.990692
H   44.112904   95.345955   14.615484
H   69.378319   26.714069   13.600327
H   94.592361   56.721302   11.373246
H   20.615227   66.047791   59.484962
H   26.971323   94.077309   19.577963
H   96.936996   83.966003   18.534931
H   49.319489   94.916298    7.768500
H   98.779861   34.377129   87.357597
H   87.160789   88.397652   69.020515
H   46.317253   86.695358   90.670288
H   83.958847   38.463272   83.880585
H   88.986610   39.865963   65.973022
H   16.778227   31.537685   11.952841
H   29.546597    5.349810   48.433575
H   46.733978   90.905556   84.738686
H   43.180305   17.534859   10.380856
H   81.138184   51.267166   58.481644
H   13.499024   50.614906   77.534912
H   16.297722    1.559542    5.204688
H   36.054962   57.041321   76.501320
H   21.879930   66.697708   81.591476
H   95.482071   17.547626    7.328001
H   75.976814    9.006874   45.632614
H   28.828285   40.019962    1.392059
H    8.475513   56.917503   13.547684
H   29.011597    7.270812   81.277840
H    7.411113    3.013931   98.340706
H   51.501446   72.587914   85.262566
H    6.728690   77.836906   43.793739
H   46.269012   49.890030   54.219231
H   43.006306    9.241203    2.414642
H   98.784698    6.372314   34.830853
H   40.345181   59.932560    4.281636
H   16.671345   63.520439   19.946108
H   53.537144    5.623156   63.761837
H   65.448151   41.846779   69.826515
H   45.310631   54.707542   57.009106
H   57.848949   95.948105   92.316414
H   33.832920    3.466255    9.795312
H   87.291405   18.402344   19.144426
H    8.277094   66.123367    5.143954
H   84.008102   19.106594   77.406441
H   56.528393   51.101517    3.379956
H   23.199684   84.310791   28.626492
H   39.362690   13.090231    5.212654
H   43.131794   47.246582   10.467624
H   68.096977   61.639957   18.839386
H   21.111904   53.383545   88.606682
H   51.383362   18.916473   70.589012
H    9.962841   32.798885   46.371471
H    0.335098    6.841876    8.423599
H   39.285362   33.414803   70.618553
H   23.141216   65.885490   74.180161
H   17.031294   67.397163   96.077461
H    1.949594   43.696072    9.708870
H    1.030214   26.935867   92.512169
H    6.870340   77.577255   50.524841
H   41.413303   38.046555   62.421936
H   14.602824   71.239151   80.231766
H   47.095154   28.676167   99.471474
H   68.939720   73.276268   66.123878
H   53.434021   35.435078   28.305935
H    6.590964   26.998602   24.879690
H   26.585348   60.986382   20.863617
H   40.011925   20.299366   90.339111
H   50.209358   27.236160   97.238197
H   27.805737   71.944351   52.790627
H   54.184219   50.654900   23.009521
H   11.093327    6.957272   81.650566
H   23.057768   36.354557   11.588345
H   53.579910   54.368050   31.838190
H   58.239468   57.557484   86.744560
H   86.198944   96.907997   13.268163
H   20.990704   37.624912   78.054543
H   34.161453   14.255616   54.758728
H   16.756517   85.260941    3.392195
H   47.321609   79.561996   34.311020
H   60.133972   97.610413   45.260403
H   22.418451   75.189987   69.204956
H   88.857948   10.422885   23.216515
H   26.756573    7.808360   17.539658
H   28.543188    9.929153   81.560837
H   43.052757   72.080688   39.474068
H   67.976913   92.896828   83.935799
H   87.933533   86.652145   17.648119
H   45.463097   65.608444   47.732220
H   78.658104    2.438605   36.628098
H   32.308884   89.876869   37.445515
H   70.219521   41.452221   91.654625
H   63.038506   65.046227   40.424320
H   40.848022   82.057465   87.963593
H   33.102226   78.206963   25.997742
H   26.726866   62.309113   69.445030
H   50.945465   60.174992   91.808617
H   75.308304   39.778973   76.482330
