100
TIME:    0.804, STEP:   804
H   62.951088   48.290382   98.409927
H   78.905495   48.337421   28.716246
H   93.578278   31.746487   13.899590
H   81.611557   99.524254   96.092766
H   87.969696   37.201668   43.904991
H   15.548912    0.338603   58.369129
H   10.833437   15.626879   53.326618
H   56.693481   58.157238   34.373520
H   33.864143    8.992094   49.478775
H   52.868507   27.928688   39.174446
H   25.468903   98.593399   62.303200
H   25.153576   63.991066   35.698936
H   92.120148   13.064405   45.217621
H   15.272264    2.598351   18.424442
H   90.280800   98.208221   12.124268
H   69.197021   41.413685   66.301254
H   59.426140   35.166794   46.557198
H   18.325211   55.602173   71.673141
H   57.783859   12.080935    5.721656
H   70.885841   88.675171   71.038536
H   16.566040   76.177032   35.422134
H   39.440662   45.161125   50.797039
H   75.009468   88.083336    9.346071
H   44.341232   46.324467   47.363297
H    0.829035   22.411259   42.494705
H   42.972431    3.653638   13.814542
H   92.748840    9.055013   15.920645
H   64.700737   93.967194   93.349136
H   28.653397   22.037104   19.166718
H   31.821470   70.940842   47.304012
H   47.728825   94.141609   45.789909
H   16.522039   30.298576   24.833748
H   26.990112    9.658064   70.227623
H   12.072967    0.041024   37.879356
H   60.787148   98.143776   73.685730
H   42.459991   47.643627   17.877882
H   56.912388   75.091652   71.817390
H   30.759995   44.238705   79.177071
H   14.574955   63.344963   65.068222
H   87.465523   36.915371    1.290706
H   80.296707   83.768288   61.285542
H   59.362236   47.942741   40.573322
H   18.166159   68.321289   59.545860
H   28.018106   26.245321   59.343758
H   86.914299    0.170518   24.908159
H   67.683067   78.318413   86.471184
H   44.569569   69.113388   34.493355
H   56.282352    3.661363   18.324858
H   88.532463   65.860886   12.401559
H   42.752239   42.986790   27.432106
H   43.483280   92.022209   61.894123
H   44.205284   89.133789   21.280449
H   25.557253   26.670593   56.175949
H   58.071285   94.085304   67.294876
H   76.753860   28.987425    7.228571
H   94.572220   11.686979   65.256744
H   47.221046   66.347878   32.454628
H   66.191101    0.959430   92.845535
H   53.685822   72.739380   49.760441
H    5.963835   89.585571   40.741905
H   10.417330   41.180977   51.708755
H   70.375610   20.461838   58.978127
H   28.767387   52.326973   78.400490
H   98.248055   46.168045    5.310034
H   64.236504   96.629570   70.436928
H   51.954292    2.303931   93.724617
H   23.062403   76.157745    5.878910
H   24.828163   63.518784    4.638450
H   96.972374   92.016022    9.806108
H   46.672844   88.582176    0.040076
H   96.500801   40.698246   52.504704
H    7.674042   24.842476   15.486303
H   54.569687   78.536751   41.133259
H   12.494582   98.500366   55.424492
H    0.936840   29.787695   62.346607
H   44.667004   59.102715   41.830471
H   39.952961   56.860466    5.260609
H   69.753708   98.148750   58.843479
H    0.088897   51.147312   26.653343
H   60.095871   65.168404   51.655823
H   26.615536   37.599407   28.041416
H    1.647401   49.478287   19.547962
H   68.666832   20.676538    6.476909
H    5.476932   80.960915   89.993568
H   13.181086   98.592346   69.813698
H   32.787701   38.586803   97.615318
H   20.852072   44.895576   61.880917
H   68.897980   40.923683   87.383247
H   72.367867   49.406425   21.622353
H   95.252029   76.201767   52.955151
H   56.925541   16.845881   50.440746
H   37.774815   55.974419   48.841881
H   36.869560   51.720276   81.114311
H   24.937235   62.002701   81.027733
H   42.691929   77.712524   34.560661
H   60.328690   63.981926   25.921486
H   98.784988   13.820153   90.950073
H    9.817168   23.083252   43.171997
H   70.411369   40.316021   77.703804
H   89.172562   58.053402   20.249273
