200
TIME:    0.288, STEP:   288
H   10.946115   62.315693   16.160347
H   28.392111   33.578911   91.845787
H   17.131618   71.239105   47.712456
H   19.460518   77.534798   43.244507
H   14.700515   84.945801   52.968376
H   88.057068   51.512199   64.128532
H    4.054656   55.270073   50.580441
H    3.964280   90.959137   23.368534
H   89.377815   86.786621   46.548458
H    9.171505   74.226524   94.179146
H   13.866756   95.619576   94.478516
H   30.976288   43.304031   15.029401
H   12.352275   88.600899   59.324394
H    2.134823   53.409451   44.578793
H   17.304396   72.314095   42.860489
H   27.901279   23.988644   53.287544
H   86.465469    9.966576   13.101574
H   35.422348   85.474533   42.665813
H   66.622467   27.964153   43.190437
H   90.208961   79.045494   35.610004
H   58.661125   79.154373   23.641376
H   88.960426   50.649086   68.724960
H   93.567833   62.192459   47.984474
H    9.624925   88.496803   91.435570
H    5.332788   14.634495   43.697582
H   18.621359   64.466385    5.371222
H   99.825203   59.759892   51.011795
H   95.611847   72.109535    0.857571
H   13.090261   55.070747   38.057297
H   90.880356   22.050203   96.965500
H   13.298824   53.454624   16.253498
H   31.053188   64.631332   94.784889
H   25.963509   10.018391   73.765457
H   94.837929   63.630287   39.129288
H   45.684971   87.817612   33.853977
H   31.493324   48.827530   80.026894
H   87.642151   73.392990   86.315285
H   30.540634   45.996952   13.009270
H   51.293762   44.681805   45.498589
H   89.622421   39.491100   61.821381
H   80.518593    2.981567    3.117504
H   15.728472   42.100357   38.407860
H   75.837601   86.679268   52.110630
H   37.174332   65.565193   20.465040
H   30.416990   77.759628   46.096092
H   40.384315   12.589306   43.209911
H   80.878693   23.860558   97.231499
H   88.947243   65.549873   45.922073
H   88.936691   26.930630   61.200939
H   60.399685   18.018118    3.681673
H   77.066391   69.888573   25.966450
H   19.303217   36.524151   64.573708
H   53.471138   93.048576    8.556188
H   21.692207   83.196640   82.413979
H   75.167160   75.317429   89.220985
H    4.690329   71.167564   80.220001
H    5.293498   16.927101   49.139698
H   67.933090   59.695240    4.437099
H   27.168314   75.404709    8.287419
H   41.993122   95.719643   66.106903
H   50.264061   14.439913   40.834099
H   90.799118   16.538591   49.434040
H   72.769699   26.200823   83.265533
H   25.289032   65.220818    4.739198
H   72.119980   76.794647   19.892401
H   36.856827   18.425962   33.726089
H   84.382179   22.149506   86.826820
H   97.072624   91.559059   88.221870
H   18.229853    6.501899   61.372261
H   44.960659   42.466595   50.980030
H   58.444107   77.422333   74.565277
H   30.791470   22.560144   44.428829
H   79.017227   26.492931   97.888458
H    9.429130    7.909636   61.969906
H   79.729507    1.648588   65.355759
H   54.527016   17.381962   62.563812
H   95.224701   31.737123   71.466621
H   24.777378    6.843992   46.326180
H   11.895489   31.832006   33.875347
H   67.552826   90.399246   91.985260
H   45.405331   29.290800    0.421136
H   28.747025   67.727089   86.373344
H   10.812442   14.192821   88.875298
H   23.108789   63.429176   95.415985
H   37.198929   99.831421   56.421906
H   26.019539   84.094879   26.783615
H   38.006523    2.884130    1.881364
H   74.932320   16.757875   13.252645
H   67.156067   72.170052   77.341011
H   23.203712   88.198647   54.337429
H   39.230675   35.307163   80.540985
H   83.721077   88.956604   99.415207
H   49.539906   16.320747   94.362762
H   57.875462   92.709160   70.422661
H   26.341179   56.276909   69.938927
H   67.284279   28.782478   26.804815
H   79.956718   12.618956    0.396479
H    5.575144   29.184589   49.048038
H   35.930260   69.297195   53.051353
H   68.039024   98.707413   27.262125
H   12.007804   81.753540   71.200050
H   92.357216   77.382767   65.599831
H   24.174391   35.415802   31.173649
H   24.182390   68.028107   92.068497
H   25.275110   26.841934   26.643749
H   89.323372   24.422815   41.643517
H   67.932106   30.692789   56.035843
H   64.468483   36.117332   16.885557
H   74.016411   39.483757    1.453634
H    5.908664   27.391138    5.772189
H   47.826073   95.649666    0.829622
H   87.921326   64.552429   91.057915
H   56.260361   80.831665   92.891304
H   63.061577   18.362526   73.716187
H   62.248451   83.967346   25.089645
H   12.079585    4.393076   81.099792
H   30.601429    9.118598   84.739670
H   40.527584   29.359089   33.019035
H   20.685247   59.515736   81.167343
H   72.049355   47.632870   51.133347
H   41.055550   22.078403   85.946953
H   16.217991   26.342945   49.600090
H   33.393623   19.798153   25.453070
H    3.370102   65.591408   15.763239
H   75.480095    7.763645   91.225609
H   49.480892   63.665844   24.604597
H   94.193520   49.414047   69.201004
H   74.378746   87.946434   35.407970
H   93.058418   50.746181   83.796394
H   70.071732   23.921837   67.319359
H   50.546577   83.471832    5.245693
H   79.857597   86.527451   10.458943
H   92.281013   84.930061   97.732208
H   98.566925   14.233654   50.297974
H    6.797322    0.502218   54.211197
H   61.079636    1.565247   82.974449
H   68.972183   86.686836   57.728188
H   91.627769   62.722233   82.439949
H   47.567871   45.004898   71.538734
H   43.473946    6.787791   94.123749
H   52.993999   61.657104   16.460449
H   55.028580   42.469261   47.365849
H   53.462471   57.644474   97.765228
H   55.513618   24.790115   78.919838
H   42.558163   68.175156   50.638126
H   47.698860   62.802818   27.547279
H   45.866508   96.567589   46.938206
H   41.341774   71.631950   68.549583
H   66.468475   62.788261   97.467285
H   10.992056   89.198845   88.200668
H   74.528328   62.125134   50.981831
H   35.807938    5.781569   46.648117
H   78.405609   30.043789    1.779489
H   11.178766    2.244514   74.766365
H   15.515919   55.146679   61.621681
H   64.927025   43.647923   55.537704
H   59.813702   62.322979   81.324142
H   46.728500   35.889755   10.848675
H   10.184950    1.553469    0.824899
H   63.141529   54.985321   80.083115
H   54.427444   82.459312   82.139641
H   41.350445   22.807552   35.128143
H   67.285515   32.477234   37.212093
H   13.036566   21.589756   69.145081
H   58.494591   23.717085   10.296179
H   12.740691   62.912014   62.039433
H   74.073296   96.790596   52.730549
H   23.674145   33.116463   49.997578
H   94.725182   28.014112   36.743591
H   28.663445   10.097486   89.862823
H   78.447998    6.204650   35.972046
H   44.504738   63.664360   57.605515
H   38.600372   75.391739   89.073441
H   70.633995   73.393646   75.355789
H   69.206909   94.675461   96.974464
H    2.389351   47.920128   23.332796
H   34.924641   54.420601   88.915901
H    2.155413    9.246635   65.493973
H   74.374031   20.263720   68.573441
H   84.017204   54.969994   87.062126
H   80.541473   86.909508   40.603271
H   20.195837   30.164639   71.368484
H   63.425381   90.115952    7.020050
H   52.526085   25.309237   78.956154
H   86.143692   86.252472   78.199081
H    0.265306   36.628799   84.194435
H   33.023376    3.702359    0.328658
H   88.115021   69.257759   27.206081
H    5.228333   61.387455   67.091995
H   50.486435   58.012203   66.309464
H   50.113300   29.436272   78.958687
H   47.259422   86.233643   24.012999
H    5.166671   18.665962   58.905762
H   34.264942   65.446777   34.280628
H   83.247391   52.111355   21.659271
H   75.445328   10.501228   28.908749
H    9.780341   86.868248    5.086896
H   27.514502   96.452202   45.613014
H   11.273219   11.746202   75.870338
H    7.507103   33.366581   97.081924
