100
TIME:    1.481, STEP:  1481
H   17.168478   86.206131   97.790115
H   60.073540   85.042824   71.421288
H    5.211773   80.453362    5.950368
H   81.725189   71.632713   58.985989
H   81.905869   91.466209   25.548225
H    5.050664   99.603615   25.413839
H   75.350243   61.343166    6.268968
H    3.482620   16.727772   72.214180
H   17.222191   43.901337    6.862781
H   34.367119   37.648323   65.686577
H   62.496017   25.833530   97.092331
H   99.312759   97.925774   87.510185
H   49.055336   72.104774   77.929192
H   81.751350    0.511120   69.945717
H   98.513969   37.737476   79.582718
H   41.976944   82.197380   10.105102
H    4.997325   79.937881    8.197278
H   32.792656   22.679825   48.202927
H   68.327950   40.483818   41.386715
H   52.615974   74.362411   17.165964
H   76.391998    8.778572   17.047771
H    4.355729   46.054688   93.150246
H   65.970543   82.577339   89.976318
H   81.440559   54.444004   97.081680
H   76.615105   68.717018   47.489357
H   39.868206   83.479401   50.358017
H   34.370255   80.914444   29.355070
H    7.579829   25.567776   15.725986
H   43.373932   83.460052   87.165154
H   57.781246   54.185257    1.124305
H   74.360085   54.853470   92.218964
H   59.268406   11.595445   62.160484
H   74.678055   60.125160   31.217131
H   40.677467   37.997841    9.359423
H   43.959251   46.967964   14.911705
H    1.321525    0.823546   15.548276
H   21.846519   50.299171   25.162176
H    2.780037   31.847630   26.951664
H   84.140457   48.893013    0.179410
H   23.700125   73.537560   54.556896
H   34.031090    6.999947   77.236252
H   98.517334   78.326591   72.380005
H   23.997557   72.381058    8.447991
H   84.787773   37.591736   25.538683
H   28.190094   73.456650   82.843094
H   58.980564   91.164589   89.184944
H   51.718067    5.631340   40.278267
H   56.318508   10.631681   60.213818
H    8.323171    9.793556   85.396683
H   56.951099   53.291164   80.081383
H   43.431629   26.662821   69.032288
H   77.106972   26.312975   76.837540
H   39.601158   30.596069   16.855038
H   42.395206   83.042320   97.169815
H   22.857262   88.337341   12.973454
H   95.419296   10.975487   42.210068
H   90.141006   46.813469   96.842766
H   15.778898   37.025826   75.408157
H    7.080970    1.343776   97.785843
H   61.286617   41.622913   21.486412
H   53.123516    9.699433   98.926109
H   46.347565   14.160038   28.343918
H   74.688904    6.159888   31.955910
H   44.737236   49.850761   86.931114
H   91.105354   42.559254   33.483570
H   10.365082   68.648170   33.753628
H   68.745132   99.565979   38.565685
H   78.062904    2.236502   37.002964
H   30.715019   43.371109   67.348061
H   60.386185   22.632692   98.614563
H   75.003654   94.633110   44.385166
H   51.851299    2.373507   65.054802
H   10.427479   45.049168   23.773357
H   97.595116   55.660019   15.188362
H   33.577103   30.750986   13.667637
H   60.673649    2.490314   96.277580
H    1.419737   98.183578   17.239573
H    1.560402   53.882660   96.229187
H   32.541069   49.163914   34.202888
H   26.894608   28.295176   93.331795
H   39.864017   44.603283   68.504555
H   52.444630   53.899612   62.937210
H   11.505363   31.975195   70.957825
H   52.050381   38.892681   28.156990
H   80.216782   56.247910    4.186169
H   17.204594   63.456760   44.628471
H   66.067360   95.672150   94.162796
H   79.796341   86.722275   80.348381
H   86.416939   11.712768   16.082783
H   35.397980   48.344124   77.158806
H   84.631142   53.400364   64.737747
H   87.865959    6.891634   61.739136
H   80.308052   72.005661   33.489609
H   90.371803    3.065719   26.675274
H   30.987587   17.070251   50.117943
H   16.246155   37.247368   90.953201
H   45.047287   52.671963   52.015549
H   12.302873   28.847504   32.340782
H   38.160484   43.234303   20.994923
H   31.216507   40.662510   55.044502
