100
TIME:    5.865, STEP:  5865
H   20.696356   84.171837   93.776443
H   38.497414   22.679113   47.913067
H   80.575974   95.856064   54.499432
H   82.461029   91.011566   18.681881
H   42.638779   42.863037    6.681618
H   37.071110   94.854103   59.577717
H   45.585072   57.371677   49.103718
H   58.908859   95.999527   69.689827
H    9.455040   22.397675   30.905668
H   14.567213    0.596125   37.356205
H   54.707016    2.233727   74.802437
H   31.990372   17.672504   75.452095
H   69.809097    6.921902   42.245781
H   64.681084   86.998299    3.568244
H   51.838463   46.141830   68.848694
H   65.704910   98.754555   46.195038
H   52.478737   69.893852    7.302434
H   26.487104    9.447651   96.214882
H   36.616703   24.396883   72.351944
H   34.503494   81.262489   15.649042
H   16.239296   72.338623   98.058327
H   24.663605   51.869858   19.819321
H    7.436645   46.922554   64.545868
H   74.115547    6.990695   71.488251
H   19.818226   21.035690   79.854225
H   19.810343   53.276390   38.899391
H   56.334145   98.674942   16.336401
H   37.670177   30.198067   60.641022
H   38.699959   81.210815   79.930786
H   25.882938   45.681114   49.639023
H   46.880768   47.981075   45.358803
H   36.076817   90.468979   56.311623
H   83.480095   39.370598   26.162474
H   25.912224   36.230400   24.667604
H   34.984131   15.570425   81.865616
H   82.472214   44.800957    0.986853
H   42.328728   89.745728   70.604408
H   21.582073   51.623035   36.318081
H   97.507477   53.627983   75.950340
H   10.776350   63.122585   99.480003
H   34.419922   57.423241   80.522560
H    5.943707   64.602737   79.377403
H   61.759518   98.670609   25.109509
H    4.844551   11.086752   54.183952
H   47.910038    0.490600   57.994366
H    2.418523   74.782730    6.988398
H   87.554977   43.797073   81.763832
H   56.552639   55.777573   31.470861
H   36.469292   46.709969   10.516038
H   48.884525   20.000402   73.457565
H   43.098873    3.415262   15.253654
H   90.161034   19.510941   89.035225
H   30.529827   56.015991   62.240421
H   40.870895   11.508048   90.623314
H   73.814812   72.586182   50.233547
H    0.900600    6.364312   92.968353
H   68.066109   20.314919   13.797861
H   89.335846   23.010889   62.486557
H   52.836029   86.579384   61.225258
H   71.988373   78.591858   96.796043
H   29.669739    5.823027   57.113369
H   90.757607   73.351486   29.981369
H   72.236244    7.065674   31.289795
H   45.779030   73.712265   67.907761
H   65.116806   92.416214   41.751255
H   41.049644   50.706505   92.967903
H   17.008564   51.129307   50.224808
H   75.230034   52.963169   46.583515
H   49.213993   28.364830   92.389557
H   49.208168   43.134949   89.383118
H   35.793251   96.346039   91.793190
H   90.371170   56.877060   86.029892
H   24.582619   28.199440   11.367874
H    1.100359   78.222557   54.674919
H   44.945881   37.002277   46.005142
H   64.313957   83.464653    1.290029
H   99.458519   18.206484   94.773521
H    7.528697   67.223701   38.342117
H   42.760342   36.291370   83.118538
H   11.900059   89.524971   15.646047
H   25.641024   89.957779   30.525839
H   81.396240   82.506180   96.333336
H   88.848885    5.202524   88.496368
H   53.651573   14.039671   27.740032
H   66.752327   82.026115   79.206467
H   16.306454   24.484562   49.066666
H   58.864815   76.919502    3.209284
H   50.354332   35.750233   34.766838
H   77.398300   67.618416   80.222664
H   47.794254   67.975632   33.877296
H   64.042625   90.124832   57.319866
H   12.249506   36.582977   45.277069
H   61.411270    3.497160   72.554031
H   14.097488   68.995918   22.266863
H   55.189659   24.378483   50.857121
H   78.346527   64.129120   64.514038
H   97.066582    4.261113   99.887497
H   26.956522   76.657806   61.139481
H   29.317841   62.132008   53.782692
H    3.509769   28.129822   32.746609
