100
TIME:    0.675, STEP:   675
H   71.674965   60.120369   98.528030
H   82.493858   41.342770   20.578947
H   91.361877   22.466049   15.414261
H   81.589905    4.839334    3.163503
H   89.125137   26.861748   47.402809
H   17.549282    0.478996   45.593334
H   17.594154    6.916027   43.238651
H   66.832626   46.997486   46.218269
H   37.035210   21.395020   57.599342
H   56.393883   26.076931   34.122589
H   37.468170   93.402771   74.729469
H   30.077488   57.524925   44.881447
H    0.326312   20.869141   58.038689
H   21.659641    2.996087    8.607128
H   88.711998    9.730582   18.325323
H   74.383713   52.697445   77.009262
H   69.797554   26.635818   34.811852
H   15.568528   61.875412   76.145309
H   55.775124    6.668895   98.925583
H   74.377754   91.379730   62.237892
H   24.221085   89.018768   38.922905
H   27.071339   44.990860   61.781605
H   76.731804   89.132484   13.037037
H   56.326721   44.777317   56.944405
H    5.442593   32.641933   41.542992
H   43.563931    7.497271   25.905787
H    3.872365   14.417628   13.360762
H   75.585899   87.945908   89.085617
H   25.848450   10.333467   25.264278
H   26.875414   74.133560   37.048733
H   42.654331   82.573418   55.997948
H    8.377098   33.862335   36.775932
H   17.903561   19.095972   58.606285
H    6.622266   11.862910   43.314064
H   63.993645    7.895349   65.829910
H   31.244106   37.510387   18.321753
H   44.540112   79.815773   61.652660
H   36.091362   46.599781   70.073296
H   20.374367   66.098732   77.431641
H   99.616356   48.992390   91.141655
H   89.113098   79.341393   58.245373
H   70.956017   42.152740   34.512669
H   17.055006   67.547714   50.228516
H   36.255554   24.083544   46.730354
H   98.104561    5.260064   13.868971
H   69.330605   75.893364   85.965309
H   43.207447   62.154888   33.391060
H   56.275463    2.333134   10.343062
H   84.761040   76.545273   17.547579
H   40.046696   41.023327   36.454193
H   43.493122    4.476336   60.533970
H   37.935982    1.103588   29.749420
H   22.881235   25.922607   63.668602
H   61.058308   96.189507   61.602314
H   87.022919   17.678568    6.133904
H   94.410812   11.822552   69.648209
H   39.043396   70.070091   20.185692
H   75.796814   13.141701   96.168167
H   43.512230   67.288925   59.664364
H   14.476327   79.670822   44.410973
H    2.279785   47.179626   61.766212
H   74.954071   21.662552   64.815231
H   20.017429   61.123680   87.250343
H   89.390327   45.466316    8.812773
H   59.115799    6.932508   58.423424
H   59.879005    8.716816   86.097130
H   33.412590   71.697388   99.650558
H   33.739037   56.141281   98.471504
H   90.543633    1.285134   17.896961
H   44.059814   82.094383    0.311341
H    0.597069   49.476254   54.051853
H   18.310503   29.123711    6.041481
H   62.980591   84.918251   44.441128
H   15.333730    6.663761   63.091347
H   94.716843   29.604143   52.567677
H   41.616993   50.834518   50.510059
H   28.240250   68.040886    2.978049
H   63.693054    6.583727   51.718914
H   93.906197   51.525242   25.214947
H   66.422256   72.193565   62.769318
H   24.091084   36.264843   20.331749
H   91.968773   48.635818   30.335197
H   60.504368   18.523619   94.190369
H   96.602936   69.922218    1.776314
H   19.462580    6.661395   82.318840
H   35.757008   33.847919   88.657204
H   12.236456   54.274925   55.729717
H   66.821335   51.251793   88.723717
H   69.690865   56.589058   22.677898
H    6.657116   81.510498   48.343227
H   51.646336    9.880262   47.716503
H   28.230120   46.272255   46.384354
H   28.592709   47.855354   71.134605
H   12.468578   54.177391   72.329445
H   44.922108   89.266937   31.596344
H   49.673828   69.076103   32.584465
H    9.024305    6.417307   98.368912
H    9.343526   21.984894   45.235847
H   76.556664   39.759953   88.510231
H   81.161240   61.367176   32.674179
