100
TIME:    1.456, STEP:  1456
H   18.859056   88.498764   97.813004
H   60.768959   83.687462   69.844292
H    4.782056   78.654732    6.243898
H   81.720993   72.662682   60.356419
H   82.129791   89.462349   26.226097
H    5.438357   99.630699   22.938005
H   76.660591   59.654972    4.313912
H    5.447571   14.564997   74.509483
H   17.836739   46.304977    8.436486
H   35.050331   37.289360   64.707726
H   64.821457   24.827595   99.500549
H    0.266865   96.672646   89.289742
H   50.645493   73.617302   80.414085
H   82.989220    0.588194   68.043327
H   98.209938   39.970409   80.784348
H   42.982117   84.383965   12.180249
H    7.007264   78.284592    5.921132
H   32.258408   23.895569   49.069626
H   67.938469   39.434967   40.069691
H   53.289459   74.893417   15.463846
H   77.875534   11.267471   17.726311
H    1.958526   46.021690   95.278847
H   66.304329   82.780663   90.691574
H   83.763329   54.144169   98.938293
H   77.509270   70.699898   47.304916
H   39.982838   84.224411   52.701195
H   36.526131   81.953568   28.858969
H    9.689171   24.400860   14.899627
H   42.830338   81.191833   88.346947
H   56.822613   54.804001   99.136894
H   73.376656   52.611572   94.197266
H   57.689884   12.286143   64.474861
H   72.917191   61.954308   28.964933
H   39.621178   40.288948   10.412613
H   44.580666   48.857765   13.389450
H   99.147858   98.859695   15.634240
H   19.448696   51.214699   23.192266
H    3.813295   32.305202   25.187557
H   85.264267   49.426689    2.575576
H   26.054842   75.877876   52.589848
H   35.739502    6.142140   76.647263
H    0.764197   77.204689   71.205460
H   23.782217   72.231140    6.642239
H   86.384224   37.172691   23.094320
H   30.358654   74.443130   80.703812
H   59.303097   90.687752   89.083473
H   51.454090    4.282677   40.064644
H   56.317173   10.374285   58.666958
H    7.592453   11.863983   86.393845
H   56.426769   52.910648   81.830040
H   43.433537   29.076475   68.768692
H   75.891991   28.632788   78.478622
H   39.082550   30.451111   18.307007
H   42.974087   83.450111   96.066605
H   24.847580   86.145798   12.761309
H   95.388016   11.001760   43.061127
H   88.556000   47.534828   94.465065
H   17.640560   39.386742   76.052078
H    5.109344    0.287428   99.705017
H   62.936283   39.701260   22.197472
H   51.546520   10.862010    0.875350
H   47.234863   14.392782   29.475166
H   72.993271    7.864748   33.670998
H   43.020432   49.714767   87.609749
H   90.113152   44.556057   31.155306
H   11.900831   69.890999   32.275433
H   70.750900   98.701569   37.358715
H   79.789818    0.806671   35.807819
H   29.468948   45.167450   68.915901
H   59.879784   21.375273   98.667206
H   75.797493   96.334084   44.685001
H   53.912571    3.203251   63.224426
H   12.057594   46.285702   24.414417
H   98.145195   57.242165   16.674187
H   32.371849   30.715414   11.772400
H   60.082561    0.888023   97.959862
H   99.149925    0.350347   16.797319
H    0.385851   55.517448   94.848648
H   31.342684   49.237156   33.924034
H   28.120651   29.656736   95.485573
H   39.374783   44.344646   67.010338
H   50.568752   53.736343   65.027664
H    9.923503   31.557962   68.576691
H   50.330524   36.753399   30.440468
H   81.434052   57.811745    6.609598
H   17.780041   62.538372   42.892403
H   64.397667   97.489853   92.970703
H   79.393890   88.723846   80.608162
H   85.898140   13.104703   16.287346
H   37.608406   49.372757   76.265022
H   83.608040   52.050533   64.209793
H   86.016212    5.011465   61.262871
H   78.703972   71.256454   31.555536
H   87.955574    1.549268   24.989655
H   31.419888   19.309669   49.543449
H   14.181259   38.234612   92.244476
H   47.031693   51.237255   53.453308
H   12.211082   28.634644   32.740753
H   39.351433   43.126537   23.089001
H   29.663925   41.304714   57.452339
