100
TIME:    6.820, STEP:  6820
H   56.113358   96.594337   92.902115
H   12.124580   74.430611    8.127692
H   96.998779   64.562050   43.286167
H   82.621323   51.666779   66.336914
H   34.084930   19.410414   80.787445
H   22.258526   93.819481   54.154224
H   95.534500   21.856289   23.786036
H   83.847740   78.618225   82.004250
H   85.979256   30.578293   70.793221
H   88.481056   14.309866   74.748329
H   65.875244   40.659931   82.812309
H   95.539078   65.541992    7.474354
H    8.868393   49.170177   47.351982
H   17.395603   84.054726   76.245583
H   63.441719   60.836815   22.929165
H   27.306866   15.227011   66.921387
H   75.683235   33.060726   94.239845
H   46.909962   62.977844   63.107170
H   51.487576   64.462906   22.666386
H    8.776375   60.979153   80.669945
H   59.568253   77.265106   72.134483
H   16.220383   53.137634   38.492264
H   94.685371   39.155602   37.223099
H   85.381798   18.415255    0.560419
H   85.662422   45.300430   86.907143
H   15.450375   25.046593   49.090981
H   73.983376   58.979500   35.287472
H   57.089172   74.774254   92.205063
H   59.465263   67.855751   34.786285
H   62.502125   22.045097   25.558743
H   84.465645   33.618431   69.802315
H   96.376343   64.078827   67.902504
H   50.749302   69.498741   12.196416
H   66.263039   48.710373   84.436005
H   11.225037   43.300331   39.986076
H   65.488579   19.600410   97.984505
H   33.925995   54.772583   45.854588
H   82.108894   34.143749    3.710901
H   57.199696   32.818962   83.403854
H   20.826012   73.718323   74.618637
H   69.152969   90.194527    3.021750
H   25.461639   68.347778   28.133572
H   69.980194    4.399101   94.090294
H   43.863018   27.116110   47.558769
H   65.070213   62.807346   39.716373
H   90.091331   92.997910   10.868231
H   95.015915   95.732193   90.929710
H   56.603878   65.613770   90.560898
H   64.382332   67.616615   72.422989
H   68.926514   34.538197    6.677042
H   43.033298   11.216372   25.319496
H   36.578686   30.893990   26.345863
H   50.340656   61.553406    6.773214
H   18.757668   95.926376   32.763199
H   97.775925   56.277855   58.357517
H    2.090061    5.359745   60.457901
H   28.610399   92.758003    4.626153
H   18.224493   32.823036   37.888779
H   28.156013   26.933788   87.912483
H    8.970011   51.996822   69.633568
H   89.911125   61.408279   82.654922
H   56.862801   64.462479   86.770447
H   37.070164   41.898842   65.802582
H   11.356438   78.914520   41.977726
H    3.019311   16.141800   30.686304
H   82.384155    3.230951   49.435471
H   40.387497   84.146942   96.331070
H    9.261753    7.579978   92.238037
H   96.808876   59.744629   32.494213
H   68.554405   91.167900   87.372162
H    5.465988   31.368851   80.339485
H   11.633851   25.178905   55.954323
H   62.314499   80.962311   86.883362
H   80.073112   17.782021   97.932922
H   90.990837   38.364773   18.400379
H   86.886208   44.671185   37.030037
H   86.184174   35.512524   11.695208
H   52.396328    4.776696   91.082253
H   88.557213   33.486233   93.770775
H   65.065781   37.502419   33.372002
H   44.329796   99.837692   87.604828
H   53.063469   88.699478   16.443577
H   49.256241   21.172522   79.445938
H   19.355145   95.761009   40.515202
H   20.251905   22.289810   86.629936
H   94.326584   59.566216   15.384887
H   22.647173    7.483021   48.747322
H   65.713371   59.331585   24.865067
H   97.216415   14.445814   72.411995
H   63.360126   28.682583   68.013397
H    3.125160   41.691910   77.487717
H   82.909836    8.408767   63.470390
H   22.628483   32.153271   46.405647
H    6.393854   26.934290   86.661163
H   38.679420   38.835854   72.802765
H   57.225632   26.416952   15.187302
H   21.262808   59.065491   44.965088
H   25.113146   23.913300   41.969826
H   83.824089   66.252617   73.791313
H   62.826061    3.623282   40.748486
