200
TIME:    0.432, STEP:   432
H   15.370996   61.837788   18.622658
H   29.675589   35.681145   97.691612
H   14.113486   77.541962   54.805229
H   24.314552   79.217903   39.478943
H   13.171630   88.595459   50.898003
H   83.372498   47.603813   59.866371
H    6.140960   55.167900   53.367672
H    7.191239   97.177399   18.257145
H   95.225838   84.627808   43.035580
H    4.102466   72.209435   88.499214
H   18.885920   98.695747   99.029053
H   31.571747   47.147598   21.890657
H   15.886577   93.379951   53.422539
H   95.328621   54.016994   51.517757
H   10.352084   73.422615   42.506180
H   23.703953   18.055477   50.181160
H   93.239639   16.710808    6.110149
H   32.002853   92.397018   40.102154
H   71.413605   22.750866   45.310249
H   90.667091   77.067955   30.027851
H   60.389275   86.342728   17.044086
H   85.754616   56.153236   63.175766
H   89.255699   61.145462   44.529274
H   12.675004   89.809669   90.984032
H   11.591807   20.425970   38.559277
H   18.502157   70.857132    0.615240
H    2.613873   62.649296   56.801590
H   98.916534   78.049843    1.236476
H   19.155262   50.693794   37.214096
H   84.373154   25.907778   91.984299
H   13.110821   59.470737   16.429554
H   28.434597   68.006332   98.330177
H   22.484138   13.116947   75.524368
H   90.072060   63.787392   41.646255
H   38.774570   81.867416   32.758640
H   26.789528   45.544266   81.678139
H   91.775208   70.284958   87.396339
H   23.417923   49.721867    6.534752
H   45.964294   39.525372   48.699455
H   88.241440   38.898937   56.196381
H   80.561440   96.254745    7.897175
H   22.895952   39.080765   34.138023
H   73.244827   83.371284   57.457676
H   36.853531   72.559090   25.615156
H   35.337128   82.153061   51.292625
H   38.357887    8.841732   44.776012
H   83.592316   16.805687    0.388911
H   85.441505   65.547676   40.745316
H   94.505661   21.466030   61.304760
H   55.246548   18.667959   97.589539
H   73.640854   68.065941   20.259602
H   13.798573   39.002666   67.669655
H   57.354416   88.927879   10.439831
H   19.549049   86.235458   84.546425
H   69.071945   72.114914   84.563881
H    2.844351   67.620079   84.935333
H    4.882541   17.472023   47.595020
H   69.506332   63.042774    1.838076
H   24.129770   78.186447   11.770223
H   38.662617   94.911049   63.444916
H   49.797691   11.630434   36.626884
H   93.386711   16.879717   50.537697
H   76.736862   29.183886   78.407379
H   28.778015   65.426262    7.954278
H   74.434799   78.941376   25.780798
H   31.208166   24.020475   36.314468
H   79.003273   19.112061   89.801918
H   96.266228   91.886452   91.072823
H   23.351954    8.447852   59.549629
H   44.131741   44.976421   50.972340
H   58.380936   79.912933   78.417084
H   26.744381   18.775080   43.420834
H   83.587540   28.982433   93.066559
H   14.120429    4.744406   66.162025
H   81.482925    3.979613   58.584885
H   58.166786   12.298139   61.622833
H   94.616058   37.097900   69.429756
H   19.443790    9.466154   41.402107
H   12.990276   38.247478   30.686016
H   65.383026   89.596146   85.156158
H   51.517025   26.857054   98.283295
H   35.078854   65.137611   81.921684
H   10.250628   15.772380   84.662041
H   18.412958   68.137917    0.109341
H   32.071060    1.354162   52.341034
H   30.076515   79.056549   23.785995
H   44.460442    3.184195    2.211497
H   73.734810   11.398352   18.684010
H   71.562332   72.524582   77.862305
H   22.482460   94.653114   52.753201
H   33.194237   36.550266   79.900482
H   82.718025   90.220032    2.557252
H   56.380543   14.696693   90.261566
H   51.418247   87.535698   74.376640
H   29.990013   54.329033   75.936363
H   61.320900   32.002022   20.034216
H   81.910088    7.638299    6.598177
H    1.616495   31.422230   50.411442
H   32.667320   67.854691   53.561668
H   70.542809    1.047344   27.297281
H   18.432524   85.734985   77.980812
H   97.711952   79.561356   64.805519
H   27.159376   30.153254   33.185909
H   31.101854   68.293976   97.786880
H   25.084223   24.949539   31.312389
H   95.024178   17.372614   34.901756
H   74.753517   32.480816   55.365677
H   63.620090   41.646202   11.317295
H   77.675957   37.666069    8.416767
H   10.534457   25.383387    6.476962
H   49.720665   94.398323    0.930937
H   93.703430   68.173523   92.698174
H   53.759323   82.502686   89.759102
H   62.573784   15.258064   70.002808
H   57.443031   89.963684   20.040604
H    6.202861    0.180394   87.596008
H   24.680897   11.146262   86.418381
H   39.796993   36.446918   30.140617
H   26.153967   64.922104   74.050400
H   75.849525   50.506893   56.505112
H   42.558479   23.035313   81.228325
H   10.004673   22.931690   53.835869
H   36.865303   13.724859   29.724829
H    1.248477   60.409538    9.457224
H   71.171257    4.198238   86.463036
H   54.756527   67.605591   21.824232
H   90.614174   50.086411   63.639725
H   71.228966   89.075829   36.624157
H   94.830513   45.533718   80.514778
H   77.051346   23.239311   69.772606
H   56.359444   78.330231   10.748745
H   74.330376   87.955673   13.854817
H   91.810799   91.936043   98.803375
H   91.506012   17.925747   52.070477
H   13.911096   97.898468   47.594131
H   57.244308    1.380436   80.852989
H   69.210587   87.053780   64.896767
H   92.856041   58.226078   80.164680
H   51.331787   47.018692   71.504677
H   43.551949   99.881371   90.122528
H   60.123028   57.422424   21.112061
H   48.399429   46.844566   50.722721
H   48.833382   60.294926   92.908173
H   48.915230   19.577597   81.306068
H   49.326839   63.399399   55.346867
H   52.975044   65.283798   20.650612
H   49.272270   95.936974   45.907139
H   37.409767   66.271721   67.723412
H   70.318085   56.775993   96.035767
H   15.582281   90.770988   82.811874
H   69.452644   64.570694   49.894733
H   41.869644    1.797152   42.135483
H   85.095184   24.659389   96.724503
H   14.985392    5.549819   71.207893
H   21.226063   58.949596   64.227043
H   69.201805   44.004978   59.967941
H   61.321026   66.641495   83.029221
H   48.775803   33.579330   14.222301
H    3.594343    1.010882   95.484505
H   61.527088   49.109833   85.609238
H   55.841934   76.609093   78.310905
H   34.589458   22.061306   33.880646
H   73.484001   26.198841   37.152218
H   18.322287   25.820042   62.984039
H   57.115807   28.603254   11.711081
H   15.221679   58.330166   61.252262
H   71.593681   94.461494   54.257099
H   23.799938   39.668159   55.952168
H   96.681847   27.545820   36.403564
H   35.234917    9.010800   88.241241
H   75.697021    7.917144   35.959961
H   39.530128   58.315666   58.047714
H   41.382660   69.204239   85.021683
H   68.861679   69.945366   78.693863
H   62.514038   93.592209   90.203590
H    6.835256   48.697960   23.470949
H   33.445332   58.918953   94.939705
H    3.431647    9.383965   67.335281
H   70.691414   16.916185   66.889236
H   77.167229   56.514671   89.093498
H   77.912445   92.069786   37.255188
H   23.100348   30.340420   76.625443
H   56.795544   89.966339    9.870316
H   55.662033   25.575710   84.253761
H   88.005875   80.006744   77.605820
H    3.279883   37.843887   84.915138
H   38.037537    1.235757    3.519395
H   81.196930   75.357368   32.244698
H    1.058197   62.029606   68.737747
H   53.105026   57.228878   68.128799
H   56.992390   24.672050   77.930367
H   46.078941   90.146973   22.178831
H    8.365264   22.091774   62.204407
H   31.749102   71.193726   37.182667
H   78.305740   45.679409   21.188232
H   75.796890   10.854576   26.935879
H   10.737525   90.794762    9.947248
H   23.329535   93.590263   41.551918
H    9.352946   12.149126   69.430153
H    6.005203   28.487904   95.081314
