100
TIME:    0.706, STEP:   706
H   69.578529   57.277504   98.499649
H   81.631538   43.023655   22.534422
H   91.894501   24.696232   15.050270
H   81.595108    3.562056    1.464244
H   88.847473   29.346535   46.562248
H   17.068573    0.445258   48.663486
H   15.969442    9.009344   45.662891
H   64.396088   49.679287   43.371857
H   36.273170   18.414505   55.647888
H   55.546700   26.521927   35.336601
H   34.584625   94.650131   71.743279
H   28.894222   59.078804   42.674797
H   98.354309   18.993607   54.957657
H   20.124683    2.900507   10.966328
H   89.088997    6.961675   16.835184
H   73.137299   49.985844   74.436020
H   67.305199   28.685898   37.634377
H   16.230957   60.367889   75.070602
H   56.257843    7.969440    0.558858
H   73.538612   90.729797   64.352776
H   22.381500   85.932770   38.081635
H   30.043812   45.031776   59.141903
H   76.317909   88.880363   12.150061
H   53.446487   45.149113   54.641968
H    4.333917   30.183399   41.771698
H   43.421787    6.573606   23.000128
H    1.199185   13.128938   13.975927
H   72.970085   89.392883   90.110184
H   26.522507   13.145999   23.798973
H   28.064001   73.366318   39.513180
H   43.873783   85.353371   53.544853
H   10.334406   33.005928   33.906105
H   20.087151   16.827948   61.399010
H    7.932125    9.021996   42.008049
H   63.223091    5.551936   67.717743
H   33.939423   39.945507   18.215086
H   47.513294   78.680519   64.095345
H   34.810181   46.032391   72.261024
H   18.980724   65.436974   74.460587
H   96.696388   46.090160   93.580559
H   86.994431   80.405220   58.975956
H   68.169914   43.544136   35.969105
H   17.322027   67.733612   52.467567
H   34.275955   24.603041   49.761482
H   95.415428    4.037005   16.521799
H   68.934685   76.476128   86.086876
H   43.534779   63.827259   33.655952
H   56.277119    2.652321   12.261168
H   85.667351   73.977707   16.310980
H   40.696865   41.495167   34.286095
H   43.490757    1.483417   60.860828
H   39.442558   98.227081   27.714241
H   23.524309   26.102356   61.868042
H   60.340496   95.683846   62.970295
H   84.555161   20.396200    6.396963
H   94.449600   11.789972   68.592896
H   41.008568   69.175606   23.134041
H   73.488464   10.214165   95.369705
H   45.957047   68.598724   57.284351
H   12.430682   82.053436   43.529259
H    4.235319   45.738091   59.349304
H   73.853821   21.374008   63.412621
H   22.120132   59.009743   85.123634
H   91.518929   45.634949    7.971029
H   60.346367    4.456561   61.310516
H   57.974617    7.175725   87.930092
H   30.925386   72.769257    1.147278
H   31.597664   57.914169   99.953484
H   92.088524   99.057678   15.952604
H   44.687752   83.653465    0.246152
H   99.612648   47.366810   53.680058
H   15.754414   28.094887    8.311186
H   60.959366   83.384712   43.646214
H   14.651454    4.701989   61.248924
H   96.211594   29.648252   54.917652
H   42.349941   52.821449   48.424267
H   31.054852   65.354118    3.526563
H   65.149490    4.556678   53.431019
H   95.391960   51.434422   25.560608
H   64.901962   70.505348   60.098633
H   24.697735   36.585552   22.184460
H   94.294624   48.838272   27.742916
H   62.465755   19.040987   97.142975
H   98.735321   72.574928   98.944801
H   17.953047    4.722299   79.313728
H   35.043453   34.986721   90.809929
H   14.306875   52.020973   57.207912
H   67.320374   48.769844   88.401588
H   70.334175   54.862999   22.424240
H    3.916306   80.234756   49.451519
H   52.914982   11.554171   48.371166
H   30.523806   48.603783   46.974922
H   30.581650   48.784134   73.532829
H   15.464880   56.057892   74.419731
H   44.386173   86.490295   32.308647
H   52.234299   67.851921   30.983284
H    6.563702    8.196286   96.586090
H    9.457347   22.248840   44.739883
H   75.079887   39.893581   85.913338
H   83.086441   60.570843   29.688368
