200
TIME:    0.774, STEP:   774
H   25.879782   60.702763   24.470646
H   32.723694   40.673950   11.575807
H    6.945518   92.511246   71.650566
H   35.842667   83.215279   30.535728
H    9.540528   97.263397   45.980865
H   72.246643   38.321396   49.743774
H   11.095931   54.925240   59.987347
H   14.855268   11.944739    6.117836
H    9.114370   79.500626   34.692493
H   92.063400   67.418678   75.009377
H   30.806292    6.001353    9.836571
H   32.985962   56.276070   38.186340
H   24.280544    4.730678   39.405632
H   79.164299   55.459911   67.997795
H   93.840469   76.055351   41.664696
H   13.735376    3.964207   42.803497
H    9.327554   32.728329   89.505104
H   23.882206    8.838443   34.013462
H   82.792557   10.369457   50.344803
H   91.755150   72.371300   16.770237
H   64.493629    3.414968    1.375814
H   78.140816   69.225594   49.996429
H   79.014381   58.658844   36.323174
H   19.918941   92.927727   89.911629
H   26.456818   34.180649   26.355801
H   18.219053   86.035156   89.319786
H    9.237020   69.511635   70.552353
H    6.765759   92.158073    2.136377
H   33.559643   40.298531   35.211494
H   68.918549   35.069736   80.153946
H   12.664312   73.759010   16.847687
H   22.215443   76.021957    6.750590
H   14.220634   20.475821   79.701782
H   78.753120   64.160515   47.624054
H   22.361986   67.735703   30.156752
H   15.618000   37.746513   85.599846
H    1.591156   62.903381   89.963844
H    6.501315   58.568539   91.158127
H   33.306808   27.279095   56.301514
H   84.961609   37.492550   42.837006
H   80.663200   80.278290   19.248962
H   39.918716   31.909224   23.996647
H   67.086990   75.514824   70.156914
H   36.091629   89.169594   37.846371
H   47.022667   92.587463   63.634392
H   33.545120   99.941216   48.495502
H   90.037170    0.050136    7.886753
H   77.115379   65.542458   28.450516
H    7.732059    8.487795   61.551334
H   43.007847   20.211332   83.121231
H   65.505203   63.737190    6.706046
H    0.725233   44.889141   75.022530
H   66.579796   79.151009   14.906548
H   14.458950   93.452652   89.610985
H   54.595810   64.508942   73.503258
H   98.460381   59.194054   96.134247
H    3.906525   18.766212   43.926411
H   73.242783   70.993164   95.664818
H   16.913229   84.793076   20.041721
H   30.752666   92.990639   57.122696
H   48.690063    4.957922   26.634399
H   99.534111   17.689890   53.159996
H   86.158875   36.268265   66.869263
H   37.064751   65.914192   15.590256
H   79.932495   84.039856   39.766102
H   17.792040   37.307182   42.461868
H   66.228371   11.897943   96.867775
H   94.351036   92.664009   97.843834
H   35.516754   13.069491   55.220879
H   42.163059   50.937260   50.954075
H   58.230904   85.828110   87.565125
H   17.132545    9.785777   41.026844
H   94.442032   34.895000   81.614548
H   25.262537   97.227058   76.118935
H   85.647293    9.515796   42.504059
H   66.811241    0.224043   59.388008
H   93.170532   49.829750   64.592201
H    6.776742   15.693789   29.707436
H   15.591658   53.482750   23.106798
H   60.228794   87.688782   68.937042
H   66.032295   21.076906   93.205688
H   50.117283   58.986538   71.348991
H    8.916322   19.523832   74.655556
H    7.260370   79.321175   11.255649
H   19.892372    4.970690   42.648964
H   39.711311   67.090515   16.666649
H   59.788498    3.896847    2.995578
H   70.890724   98.669556   31.583504
H   82.030655   73.356934   79.093872
H   20.769485    9.983109   48.990658
H   18.858295   39.502636   78.379288
H   80.335777   93.220673   10.019596
H   72.627747   10.839565   80.521225
H   36.082363   75.248726   83.767342
H   38.655495   49.702827   90.180275
H   47.157875   39.648438    3.954220
H   86.549339   95.808708   21.327217
H   92.215248   36.736046   53.649525
H   24.917839   64.428741   54.773666
H   76.489296    6.604230   27.380777
H   33.691433   95.190918   94.085121
H   10.428657   84.735504   62.919029
H   34.248718   17.654280   37.964756
H   47.534966   68.925415   11.368606
H   24.630865   20.455101   42.400410
H    8.564093    0.628382   18.889540
H   90.954369   36.727375   53.774033
H   61.604443   54.777267   98.092842
H   86.367378   33.349060   24.954212
H   21.520716   20.614977    8.150797
H   54.220322   91.426384    1.171559
H    7.435422   76.773621   96.593788
H   47.819359   86.471359   82.320122
H   61.415276    7.884971   61.183952
H   46.030159    4.204870    8.048913
H   92.245842   90.176491    3.024605
H   10.619508   15.961965   90.405319
H   38.061840   53.280514   23.304375
H   39.141815   77.762238   57.148190
H   84.874931   57.332699   69.263596
H   46.127937   25.307972   70.021584
H   95.248550   14.829960   63.895844
H   45.110542   99.300613   39.870762
H   96.209915   48.102997   94.480400
H   60.937767   95.730843   75.151924
H   67.286156   76.962372   15.220826
H   82.113228   51.683273   50.431686
H   63.748238   91.758141   39.512600
H   99.039238   33.154118   72.720940
H   93.627930   21.618313   75.599068
H   70.165001   66.118927   23.818493
H   61.203224   91.347702   21.920017
H   90.694038    8.574911    1.347842
H   74.736343   26.694141   56.279202
H   30.806049   91.714539   31.878601
H   48.135406    0.941511   75.814522
H   69.776794   87.925270   81.922142
H   95.773186   47.547710   74.760918
H   60.271088   51.801453   71.423790
H   43.737206   83.479607   80.619629
H   77.054474   47.365059   32.159637
H   32.655197   57.235916   58.695293
H   37.839294   66.589211   81.372665
H   33.244057    7.197763   86.973366
H   65.402451   52.056976   66.530121
H   65.506142   71.175491    4.270989
H   57.360954   94.439262   43.458355
H   28.071251   53.541176   65.761253
H   79.460907   42.496857   92.635910
H   26.484379   94.504829   70.013489
H   57.398613   70.378891   47.312878
H   56.266197   92.333534   31.417976
H    0.982940   11.871441   84.719330
H   24.025837   13.400032   62.756329
H   34.787655   67.982101   70.413582
H   79.354408   44.852985   70.490555
H   64.900925   76.898468   87.078781
H   53.638145   28.092072   22.234665
H   87.941475   99.722183   82.800926
H   57.692791   35.155548   98.733780
H   59.201347   62.714821   69.217659
H   18.531569   20.288971   30.917839
H   88.205406   11.287613   37.010014
H   30.876055   35.866970   48.352654
H   53.841194   40.207909   15.071472
H   21.114025   47.448277   59.382732
H   65.704597   88.929878   57.882656
H   24.098698   55.228439   70.094315
H    1.329199   26.433626   35.596001
H   50.842163    6.429923   84.389984
H   69.163452   11.984317   35.931259
H   27.715193   45.612518   59.097939
H   47.990593   54.508083   75.398758
H   64.650345   61.765717   86.628601
H   46.618469   91.019485   74.122765
H   17.392998   50.546921   23.803612
H   29.931973   69.603226    9.245415
H    6.462768    9.710121   71.708389
H   61.944889    8.965503   62.889614
H   60.898788   60.183281   93.918007
H   71.668503    4.325708   29.303711
H   29.998560   30.757900   89.110718
H   41.047398   89.603653   16.646545
H   63.110146   26.208454   96.835579
H   92.428558   65.173141   76.196823
H   10.439455   40.729721   86.626808
H   49.946167   95.377892   11.097322
H   64.766464   89.843941   44.212036
H   91.153542   63.554714   72.646408
H   59.324181   55.368481   72.449722
H   73.329483   13.357025   75.488106
H   43.275299   99.441132   17.822683
H   15.961778   30.228077   70.039696
H   25.774565   84.842728   44.075008
H   66.569321   30.403606   20.069515
H   76.631851   11.693777   22.250313
H   13.010837    0.120242   21.490583
H   13.390152   86.793159   31.906815
H    4.792298   13.106070   54.134712
H    2.438156   16.900864   90.329865
