100
TIME:    5.963, STEP:  5963
H   14.069233   75.184715   93.686722
H   35.790810   27.989889   54.092648
H   82.261246    2.906554   53.348751
H   82.477478   86.974091   13.310075
H   41.761002   50.718170    4.024548
H   35.551075   94.747932   69.282951
H   40.449253   63.989399   56.767445
H   51.206253    4.477907   60.691959
H    7.046013   12.975343   24.736929
H   11.890142    2.003377   41.193302
H   45.591293    6.176881   65.362221
H   28.249725   22.584766   68.476234
H   63.555496    0.995415   32.507988
H   59.828636   86.696236   11.026356
H   53.030266   37.387985   64.138306
H   61.764633   90.183144   38.060272
H   44.598183   76.376244   16.223761
H   28.582853    4.679317   92.817421
H   38.142719   28.508379   77.515427
H   31.863434   79.180946   22.321344
H   10.423836   62.582775   95.398079
H   34.058960   51.999954   11.473709
H    6.128110   46.125526   61.742065
H   65.010292    8.163057   64.210327
H   16.313473   13.263550   80.577980
H   19.363604   50.379128   29.684132
H   47.883110   94.601578   18.281118
H   29.401459   34.772377   63.880722
H   40.830849   90.102234   75.298157
H   29.640408   43.255638   57.429855
H   50.738052   56.768566   37.605354
H   42.264622   87.760880   47.239265
H   90.382683   32.200340   34.991089
H   30.053253   27.249260   20.539286
H   32.548187    8.162218   87.833603
H   90.991287   52.476646    0.678657
H   51.727821   86.156860   78.326454
H   17.531574   49.829350   43.233379
H   93.371307   51.492607   66.453300
H    1.545871   53.947796    7.190439
H   27.722439   60.785561   82.831398
H   97.684708   64.987045   84.380882
H   62.603649   99.258286   32.188164
H   98.586945   12.731649   63.765480
H   39.409657   96.623672   66.380356
H    1.153884   76.651932    7.386538
H   88.320602   49.126541   82.704414
H   56.557873   56.786942   37.534550
H   39.333656   38.593895    6.606603
H   50.939899   21.492025   66.602829
H   43.092144   93.953995   16.286709
H   94.923759   10.417274   82.602180
H   32.562771   56.584229   56.548328
H   38.601685    9.908946   94.947899
H   66.012016   81.174042   51.067211
H    1.022669    6.261226   89.632202
H   74.279335   17.487190   23.118492
H   82.038483   13.755724   59.962387
H   60.564804   90.720039   53.702095
H   65.520935   86.123993   94.008690
H   35.851704    1.265726   49.472820
H   87.279396   72.439316   25.546875
H   78.889107    0.378226   24.569641
H   52.508904   74.246109   65.247513
H   69.006241   84.589493   50.877445
H   35.029320   45.834618   98.762428
H    9.145580   54.517048   54.956131
H   68.460533   58.567783   51.268482
H   54.098591   21.323174   86.243622
H   51.193260   48.064407   89.176758
H   32.681404   89.678223   90.617836
H   82.290237   53.624649   93.204636
H   18.192566   23.352226    8.854919
H   98.942909   72.019798   48.851982
H   49.670475   37.142094   53.434097
H   66.630272   89.745171   94.695587
H    8.356338    9.712458   96.506645
H   12.132915   60.815704   43.754578
H   47.459515   36.003513   84.211647
H    7.094172   84.186531    7.203414
H   27.558825   90.971634   36.383076
H   88.751923   83.141708   88.135765
H   95.047157    6.841347   97.828918
H   60.393410   22.425987   18.789547
H   61.980629   75.896629   69.706436
H   14.050701   28.084270   55.872055
H   65.410011   69.794106    7.882373
H   51.930443   27.908007   33.750740
H   79.431992   62.161842   79.421150
H   39.129383   63.944126   37.380180
H   68.053185   95.416916   59.389446
H   19.500513   43.953613   47.144028
H   67.693283    6.437780   80.132523
H   23.568695   74.941475   28.874865
H   53.495415   15.599964   53.109135
H   86.440918   60.259125   59.452240
H   89.287712    9.884980   94.251480
H   26.767359   81.507263   59.172333
H   24.649323   62.554447   45.573906
H    9.596821   25.614998   23.305645
