100
TIME:    0.199, STEP:   199
H    3.865235    3.772061   98.963821
H   95.734642   15.534206   90.553406
H   83.183533   88.220924   21.003281
H   81.510010   24.451746   29.255045
H   93.388626   88.708252   60.309486
H   24.930492    0.997064   98.452690
H   42.540607   74.775764    6.014615
H    4.245291    5.818666   89.922325
H   48.736198   67.160339   87.560753
H   69.402245   19.244091   15.481630
H   81.744537   74.249756   20.581120
H   48.246342   33.665367   78.764198
H   30.604347   49.667664    5.350334
H   45.228672    4.463704   72.384789
H   82.923241   52.246445   41.206898
H   93.522202   94.331001   16.520893
H    8.067001   95.157295   91.473457
H    5.397232   85.023178   92.647263
H   48.363045   86.701340   73.845810
H   87.262642    1.359594   29.764200
H   52.467606   36.406509   51.840477
H   81.429176   44.362595    2.310555
H   83.087090   93.003761   26.657124
H    0.552250   39.068455   92.295044
H   22.465689   70.391716   38.027847
H   45.744480   21.681957   70.519493
H   44.919003   34.204632    3.915187
H   15.749969   65.727829   73.353561
H   15.498368   67.146812   47.765076
H    8.624482   85.914444   99.209007
H   23.929842   39.887688   93.664818
H   78.322388   47.012329   80.841667
H   84.375305   53.922264   15.724446
H   86.510216   55.485504   63.367714
H   75.825371   43.877365   36.845947
H   89.857140    0.117977   19.959600
H   98.886070   97.247414   24.145580
H   55.763695   55.311970   36.484043
H   41.774349   76.259926   23.053276
H   44.449665   93.553246   53.691681
H   21.642483   63.006710   47.027386
H   13.736191   20.788088   12.149484
H   12.955613   64.693283   15.847385
H   66.651978   16.106752    0.189099
H   39.393677   24.040321   73.136414
H   75.409889   66.945122   84.098671
H   38.181324   36.475903   29.323675
H   56.250042   97.431274   80.890945
H   70.844780   15.968433   36.535789
H   30.063452   33.778301   69.745621
H   43.528103   50.431976   55.517353
H   14.804090   45.273438   60.999268
H   13.007212   23.162598   91.312325
H   72.077530    3.955250   40.597187
H   24.916977   75.950729    2.094773
H   93.815231   12.323002   85.852371
H    8.868286   83.804771   74.913963
H   11.241537   58.093544    8.429054
H    5.972465   47.177170   96.205872
H   45.887321   43.084045   57.947311
H   72.253708   69.315048   98.880859
H   91.848236   26.093094   86.350571
H   87.731010   93.582848   19.905975
H   56.705193   42.876991   21.737608
H   40.220627   44.950649   14.093316
H   89.120583   32.380268   57.952297
H   71.602409   55.240948   76.669846
H   66.619469   28.918663   75.715950
H   66.822075   35.487450   47.752277
H   34.417938   58.154045    1.312298
H   15.713358   81.864418   59.760715
H   57.557751   44.921135   71.192360
H   94.016174    8.464184   56.646908
H   25.810814   36.786549   91.381447
H   71.765182   28.926851   16.483398
H   30.362692   20.326212   82.539169
H   85.023041    9.296116   94.553772
H   41.329712   37.708469   25.429878
H   71.092537   52.917850   19.907375
H   89.766129   98.115868    3.777197
H   14.776171   31.340162   91.882675
H   56.254910   45.527176   70.140442
H   30.387482   10.578893   48.853577
H   63.860489   29.190281   45.253731
H   42.640526   36.436630   28.461483
H   46.715580   16.361364   55.603123
H   80.445473   88.883995   33.032269
H   59.158676   89.361717   93.669945
H   59.812935   83.092415   26.572781
H   48.741096    1.099109   31.325659
H   32.166477   84.176682   37.664257
H   93.010612   10.473116   37.316269
H   98.052696   33.594093   34.310265
H   66.462776   25.303026   40.236126
H   53.151295   31.904469   20.659805
H   10.358215   87.873222   57.170341
H   46.806450   79.100655   25.744286
H    7.595927   17.932037   52.851295
H   99.232323   37.708103   28.382610
H   51.600079   73.591896   78.519394
