200
TIME:    0.743, STEP:   743
H   24.927233   60.805645   23.940565
H   32.447449   40.221386   10.317301
H    7.595259   91.154381   70.123650
H   34.797760   82.852943   31.346371
H    9.869663   96.477707   46.426571
H   73.255127   39.162785   50.661320
H   10.646796   54.947235   59.387318
H   14.160575   10.606204    7.218190
H    7.855482   79.965370   35.448738
H   93.154663   67.853081   76.232140
H   29.725790    5.339151    8.856941
H   32.857773   55.448635   36.709209
H   23.519688    3.701750   40.676170
H   80.629486   55.329121   66.503990
H   95.337112   75.816711   41.740971
H   14.638938    5.241486   43.472233
H    7.869344   31.276476   91.010262
H   24.618288    7.348097   34.565361
H   81.761131   11.491733   49.888454
H   91.656525   72.797020   17.971951
H   64.121597    1.867520    2.796042
H   78.830956   68.040672   51.191048
H   79.942688   58.884239   37.067001
H   19.262327   92.645096   90.008835
H   25.109413   32.933880   27.461964
H   18.244715   84.659370   90.343643
H    8.636665   68.889610   69.305939
H    6.054274   90.879257    2.054810
H   32.253983   41.240791   35.393017
H   70.319405   34.239227   81.226288
H   12.704785   72.463875   16.809786
H   22.779167   75.295395    5.987324
H   14.969666   19.808800   79.323128
H   79.779106   64.126694   47.082207
H   23.849701   69.016647   30.392612
H   16.630634   38.453327   85.244370
H    0.701435   63.572472   89.731117
H    8.034691   57.766647   92.551888
H   34.454124   28.389101   55.612438
H   85.258904   37.620029   44.047943
H   80.653976   81.726448   18.220020
H   38.375717   32.559284   24.915907
H   67.645157   76.226959   69.005814
H   36.160690   87.663963   36.737724
H   45.963451   91.641655   62.515694
H   33.981365    0.747989   48.158356
H   89.452988    1.568908    7.207123
H   77.870087   65.542931   29.564957
H    6.533169    9.664172   61.528984
H   44.117203   20.071436   84.432686
H   66.242645   64.129562    7.934588
H    1.910246   44.355572   74.356041
H   65.743492   80.037216   14.501670
H   14.920354   92.798462   89.151917
H   55.907974   65.198372   74.505829
H   98.857719   59.957867   95.119141
H    3.994987   18.648903   44.258945
H   72.904099   70.272514   96.224403
H   17.567360   84.194229   19.291981
H   31.469650   93.164711   57.695763
H   48.790462    5.562740   27.540178
H   98.976891   17.616453   52.922302
H   85.304832   35.626137   67.915115
H   36.313591   65.869965   14.898106
H   79.434166   83.577713   38.498402
H   19.008121   36.102867   41.904648
H   67.386330   12.551867   96.227303
H   94.524635   92.593529   97.230087
H   34.414139   12.650571   55.613251
H   42.341507   50.396950   50.955730
H   58.244503   85.291939   86.735916
H   18.003794   10.600588   41.243843
H   93.458145   34.359066   82.652596
H   24.252575   97.908447   75.216408
H   85.269821    9.013978   43.961678
H   66.027679    1.318482   59.590580
H   93.301559   48.675694   65.030693
H    7.924930   15.129295   30.767479
H   15.355324   52.102470   23.795460
H   60.696022   87.861671   70.407196
H   64.716583   21.600838   93.665939
H   48.754150   59.544113   72.307335
H    9.037268   19.183788   75.562576
H    8.271267   78.307487   10.245302
H   20.996288    4.642870   43.527485
H   38.837994   68.175156   17.311970
H   58.399113    3.832250    2.924506
H   71.148521   99.823257   30.414251
H   81.081772   73.281487   78.982239
H   20.924755    8.593516   49.331707
H   20.157747   39.235023   78.517174
H   80.551712   92.948685    9.343174
H   71.154991   11.189188   81.404121
H   37.472458   76.362457   82.916138
H   37.870041   50.122162   88.889160
H   48.441658   38.955341    5.411765
H   86.128822   96.881050   19.992111
H   93.067398   36.254391   53.356014
H   25.620277   64.739281   54.663807
H   75.950287    6.100535   27.373209
H   32.308315   94.333801   92.625374
H    9.275990   84.266502   63.090027
H   33.606117   18.787228   37.531586
H   46.045418   68.868179   10.137506
H   24.671959   20.862492   41.395355
H    7.336769    2.146137   20.340950
H   89.485870   36.342453   53.918304
H   61.787148   53.587025   99.291481
H   85.579559   33.740368   23.455204
H   20.524885   21.047201    7.999075
H   53.812458   91.695770    1.149748
H    6.190753   75.994080   96.240677
H   48.357777   86.111626   82.994415
H   61.520287    8.553289   61.983242
H   47.064659    2.914027    9.135889
H   93.510941   91.083275    1.626076
H   11.894096   15.525454   90.043930
H   38.219120   51.754662   23.924034
H   37.964581   76.598366   58.680191
H   84.056839   56.713985   68.107056
H   45.804390   25.101971   71.037399
H   96.586021   15.564327   62.983974
H   44.363167    0.608062   38.951088
H   96.666618   49.218502   95.837975
H   61.865364   96.498322   76.177200
H   66.150429   76.114243   15.819407
H   82.883781   51.538528   51.628906
H   64.426315   91.515007   39.250782
H   98.657745   34.276245   73.427399
H   92.125374   21.765245   75.070938
H   68.913620   67.225800   22.633808
H   62.393112   91.040237   21.188961
H   90.795265    7.066739    1.117166
H   76.256401   25.899345   55.897709
H   29.274639   92.275070   33.303108
H   48.961067    0.981297   76.271225
H   69.725471   87.846275   80.378906
H   95.508766   48.515633   75.250732
H   59.460800   51.367928   71.431122
H   43.720413   84.966316   81.481003
H   75.519753   48.276691   31.158249
H   34.082306   56.294010   57.972633
H   38.835835   66.018745   82.418282
H   34.664543    8.319921   86.459663
H   63.945301   53.085091   65.516434
H   64.370178   70.641449    5.755703
H   56.627769   94.575020   43.680321
H   28.917725   54.695114   65.939110
H   78.632172   43.791164   92.944084
H   25.496176   94.166382   71.173576
H   58.491177   69.852417   47.546906
H   54.961246   93.191360   32.389446
H   99.542809   13.030582   85.807518
H   23.206385   12.688458   63.522507
H   33.558388   67.163300   69.852814
H   78.434143   44.776119   69.536705
H   64.576431   75.968742   86.711716
H   53.197407   28.589455   21.508398
H   89.360306   99.839020   83.950607
H   58.040344   36.420410   97.544128
H   58.896839   63.974243   70.041901
H   19.987118   20.449621   31.186398
H   86.871010   12.639215   37.022903
H   29.738140   34.956284   49.678890
H   54.138016   39.156025   14.766875
H   20.579924   48.434647   59.552193
H   66.238403   89.431282   57.554024
H   24.071617   53.818005   68.812424
H    0.907885   26.534439   35.669201
H   49.427471    6.663862   84.739075
H   69.755676   11.615655   35.933861
H   28.786175   46.763973   59.002743
H   47.391628   55.840233   76.271011
H   65.032074   62.507061   85.909370
H   48.059296   91.252686   75.580383
H   16.436546   50.378643   23.771801
H   30.250435   68.634712    7.948741
H    6.188016    9.680557   71.311996
H   62.737793    9.686182   63.252068
H   62.373318   59.850746   93.480698
H   72.234474    3.214746   30.024420
H   29.373283   30.720058   87.979012
H   42.474861   89.636528   16.032326
H   62.435024   26.151100   95.695122
H   92.027672   66.517708   76.324539
H    9.790498   40.468140   86.471657
H   48.866730   95.908859   10.410435
H   66.255775   88.530830   43.127277
H   92.051338   63.416473   72.292114
H   58.760456   55.537113   72.058060
H   71.848686   14.382656   75.709480
H   43.529430   98.598679   18.217539
H   15.273205   29.490576   69.329453
H   26.316116   83.605537   43.450264
H   67.633148   31.788202   20.170919
H   76.556168   11.617709   22.675028
H   12.804776   99.274940   20.444258
H   14.291112   87.409271   32.781078
H    5.205690   13.019329   55.521141
H    2.761489   17.951151   90.760551
