100
TIME:    1.933, STEP:  1933
H   86.601715   44.755325   97.376297
H   47.500359    9.548578   99.933372
H   12.981367   12.971923    0.644037
H   81.801056   53.010887   34.208614
H   77.857346   27.695988   13.293434
H   98.041878   99.113930   70.177910
H   51.660938   91.862572   41.615974
H   67.956306   55.830158   30.712326
H    6.111168    0.443217   78.412148
H   22.016035   44.138374   83.384209
H   20.452072   44.020847   53.552570
H   82.063431   20.581728   55.335808
H   20.304604   44.758278   33.004692
H   59.370674   99.117805    4.341335
H    4.011943   97.364197   57.856277
H   23.803421   42.662071   72.585709
H   68.657150    9.829384   49.348900
H   42.451866    0.698683   32.533005
H   75.369759   59.447044   65.198685
H   40.439369   64.761826   47.940254
H   49.569672   63.782085    4.779781
H   47.696537   46.651276   54.664299
H   59.935692   78.901253   77.044495
H   39.444893   59.865025   63.514061
H   60.448601   32.869553   50.824043
H   37.795666   70.009613    7.992547
H   95.393822   62.126743   38.324581
H   69.440170   46.665615   30.666552
H   53.202118   24.468740   65.798332
H   75.113335   42.998367   37.056118
H   92.140480   95.386978   56.451992
H   87.808075   99.107704   20.316551
H    6.515005   27.054436   71.936859
H   59.775185   96.574936   90.317444
H   32.724083   12.800281   42.434074
H   40.621807   36.331165   13.994733
H   65.197937   33.746437   60.778141
H   84.096535   23.574711   58.846714
H   63.821945   39.244148   56.858940
H   81.126091   31.221991   90.118607
H    3.142998   22.509485   87.885178
H   57.894165   98.610588   93.615784
H   27.890898   75.091568   41.095856
H   55.923943   45.168060   69.731735
H   88.982063   55.622700   21.522280
H   53.149174   99.785805   91.019539
H   56.490772   30.015261   44.140572
H   56.342648   15.285414   88.181038
H   21.534323   72.357628   67.367996
H   66.430107   60.170895   48.467358
H   43.397144   83.024635   73.798096
H   99.073830   84.371323   47.164806
H   48.977592   33.216919   90.604027
H   31.929050   75.669456   17.114416
H   86.873917   27.961744   16.808851
H   95.984848   10.500458   26.822922
H   18.796144   33.771294   39.831902
H   82.121918   94.339294   63.766068
H   42.727974   20.442587   63.087082
H   31.460659   76.365189    8.630950
H   81.635605   88.678658   63.682613
H   30.305389    9.952023    7.891285
H    5.346373   75.337059    0.946723
H   75.775757   52.309532   74.661400
H    9.045390    6.458062   75.578293
H   82.598091   46.177834   60.479397
H   32.480850   15.192216   60.387707
H   46.840309   28.087997   58.611179
H   53.243980   10.893265   38.998459
H   69.544006   45.367851   97.662781
H   60.651054   63.879494   38.964146
H   14.582734   87.372452   98.146477
H   80.956192   22.692631   12.182995
H   87.649681   27.055124   88.324623
H   55.368088   31.394129   47.932720
H   71.358131   31.459406   65.861931
H   42.458946   59.008331   25.234888
H   22.796185   24.326132   21.191807
H   54.207909   47.839695   39.244576
H    4.727363    3.678153   54.391487
H   48.709385   49.279430   95.519997
H   86.358215   56.851517   25.141485
H   40.103733   39.520477   14.008467
H   83.143257   77.570900   86.871704
H   58.208542   27.973770   60.369766
H    6.800560   80.057884   76.016594
H   96.255409   62.808075   15.716341
H   87.072647   50.533859   75.647438
H   95.796822   86.546150   12.385124
H   95.434921   29.746437   93.318413
H    3.128884   77.807251   74.283157
H   21.309710   40.885540   70.352547
H    9.309292   85.551315   68.457260
H   34.059658   30.482981   57.149849
H   23.171593   76.583649   60.504784
H   53.579468   19.399221   67.606949
H    9.170169   78.611473   26.020859
H   13.962457   32.696014   25.107662
H   16.629368   45.182697   83.132370
H   59.287186   29.051895   11.510088
