100
TIME:    3.033, STEP:  3033
H   12.213078   43.879723   96.369217
H   16.901909   69.190582   69.320724
H   31.889296   92.110626   87.736320
H   81.985687    7.690031   73.915100
H   68.004745   15.865827   83.468018
H   80.988655   97.922218   79.114403
H   94.011238   66.141609   27.637489
H   81.498474   50.994297   29.713909
H   79.071007   94.682709    9.169920
H   91.957771   59.932747   26.458658
H   18.132751   88.282013   47.595249
H   40.080193   75.719360   77.036964
H   50.332550   78.206589   23.673698
H    4.904855   95.727303   88.052452
H   17.393208   99.107864    4.977949
H   79.573776   46.451874   81.275734
H   80.211281   82.579849   49.494305
H   65.958092   47.205925   94.394714
H   92.506905    5.589825   23.152903
H   10.806038   41.405689   22.833338
H   84.294205   54.273331   74.920547
H   53.157013   48.110336   60.990311
H   45.249107   69.955025   45.573242
H   37.242966   73.057770   81.816887
H   21.106503   45.627777   58.939430
H   32.751873   37.236012    4.888663
H    0.539425   16.398348   60.153042
H   76.625664   98.009911   67.028831
H   77.120270   24.269354   13.800901
H   17.292236   15.773618   24.503136
H   35.422459   94.030807   69.417641
H   57.262642   68.710670   18.484032
H   83.998138   46.573265   71.033546
H    6.252221   95.766487   43.974976
H    5.378488   29.648712    9.417816
H   36.262234   22.742502   10.213986
H   70.702461   93.459946   47.453793
H   38.631554    3.441740   36.471630
H   17.047813   15.333303   50.391815
H   77.518250   28.243692   76.665016
H   27.967325   60.250866   13.802041
H   59.032402   47.981941   45.293701
H   37.365841   81.687943   20.550697
H   85.681900   63.606018   77.284142
H   93.565453   12.225758   15.652892
H   38.957737   20.766621   95.484261
H   65.429977   89.782074   54.575439
H   56.401394   26.610868   56.242775
H   53.685356   81.256279   23.485937
H   89.492241   76.907127   71.531647
H   43.313221   76.826797   85.396301
H   52.530491   82.299728   74.951775
H   71.793480   39.595093   26.717030
H    6.458317   57.723709   65.654388
H   99.300827   24.388397   26.144987
H   97.361191    9.344414   89.376328
H   88.530998    2.030595   44.451042
H    0.213125   90.457932   35.433548
H   29.483040   66.920380   78.638741
H   58.870834   60.915600   77.344856
H   51.024879   37.523335   77.918808
H   91.267509   99.711349   58.122589
H   79.971260    0.316226   25.488571
H   51.310776   58.293266   44.796078
H   52.708500   18.603024   78.019051
H   15.023048   91.493507   25.518852
H   44.225563   53.219692   13.495345
H   70.855675   90.997192   11.197539
H    8.065397   31.854286   70.009193
H   91.834045    0.693005   95.346497
H   25.721405   89.034111   25.766193
H   23.882734   50.865799   78.684387
H    9.233973   68.280235   83.981194
H   63.445995   57.446320   22.948341
H    8.405435   32.961872   31.320435
H   97.357582    1.958996   91.847351
H   42.331806   63.667587   44.689777
H   74.476181   52.400967   81.941437
H    6.957247   44.609852   51.521385
H   50.781349   43.770557   59.625534
H   70.233292   60.659435   61.263981
H   68.894531   64.035355   33.160378
H    9.696745   57.882904   18.778019
H   58.814724   71.699310   86.399200
H    4.646902   59.169865   53.737068
H   81.487305   20.460747   52.403973
H   69.721931   82.829109   68.168442
H    4.779341   62.465073   64.200294
H   18.626312   25.299356    3.385906
H   98.180084   84.489456   32.640648
H   48.145477   37.205090   97.513138
H    2.702567   23.604845   91.316597
H   79.875839   18.521505   53.550987
H   40.379032   97.206154   31.318642
H    4.150580   78.052277   85.782494
H   44.434967   75.961617   10.790655
H   21.857040   41.738110   62.759010
H   18.000227   42.061859    7.505754
H   64.228325   49.924366   90.990822
H   27.602396    0.803595    5.560628
