100
TIME:    2.719, STEP:  2719
H   33.446930   72.675194   96.656693
H   25.636375   52.165573   49.513660
H   26.491941   69.519836   91.420799
H   81.932983   20.627630   91.125305
H   70.817215   90.697357   91.982086
H   85.856575   98.262398   48.017895
H   10.468212   44.938133    3.082222
H    6.178261   23.830248   58.545315
H   86.789726   24.872742   28.935272
H    0.538839   55.424171   14.161891
H   47.340271   75.647461   77.841171
H   52.065529   59.980072   99.388191
H   70.305672   97.203934   54.881889
H   20.452065   96.695137   64.158440
H   13.573376   27.154993   20.071993
H   92.198746   73.915375    7.340441
H    5.461301   61.809990   20.909647
H   59.248634   62.475670    5.281040
H   87.615028   92.417755    6.611053
H   19.265007   48.072727    1.454826
H    2.927380   85.532257   83.444199
H   23.053528   47.693497   87.730331
H   49.441460   72.508766   54.556854
H   66.416946   69.291840    5.136389
H   32.336052   70.530975   56.622856
H   34.191647   46.590946   34.319885
H   27.616047   29.450937   53.922009
H    3.121117   83.353447   56.649265
H   70.292725   95.781227   28.643026
H    5.252463   23.545059   99.541771
H   23.064272   65.872574   94.260323
H   37.436409   77.387642   47.552605
H   61.881451   69.547356   42.745949
H   92.984932   24.542526   57.203644
H   13.184150   53.384613   90.297066
H    8.960626   98.075920   11.293218
H   40.586464    4.959440   22.711729
H   51.608681    9.188618   14.314404
H   30.302834   22.174025   80.821106
H    7.094385   57.640312   51.960110
H   49.426502   49.477718    6.404353
H   87.252922   33.888451   30.541533
H   34.661175   79.804977   97.870232
H    5.733065   58.342819   46.583107
H   20.802847   24.613743   88.782814
H   43.008747   14.777546   94.209785
H   62.975857   72.706024   51.559341
H   56.384624   23.377966   36.814217
H   44.507698    7.262630   36.011871
H   82.909050   72.130241   93.494781
H   43.337177    7.141359   82.085541
H   37.270329   11.435932   95.563774
H   65.282158   37.774414   44.954613
H   13.729053   62.847961   51.798065
H   24.300499   96.866837   23.477186
H   96.968307    9.674412    0.065631
H   68.623314   11.091434   14.587091
H   23.594086   20.111610   43.521194
H    4.719413   53.653378    2.743704
H   79.592438   36.779629   86.275764
H   31.217764   52.124699    2.401961
H    2.411720    2.634544   72.329666
H   58.661869   21.737944   47.024338
H   29.747835   56.585182   53.322124
H   40.244038   43.682232   48.776749
H   34.312630    7.103327    6.953627
H   69.418007   42.365093   98.334854
H   92.545708   73.039551   96.186523
H   92.416100   54.416328   89.701271
H   85.471252   84.900948   96.007690
H   35.692772   10.398658   29.533321
H   49.772682   61.286789   55.695061
H   29.708223   83.813499   92.030510
H   70.355186   77.316467   41.610298
H   93.265892   32.513889    7.516264
H   89.935921   81.835564   12.975794
H   13.822180   90.881973   39.136707
H   59.723888   72.932869   64.601868
H   91.899246   45.532169   48.016579
H   66.180458   60.872959   86.676987
H   64.090897   57.410961   42.496616
H   45.334007   61.984695   59.416481
H   89.831284   52.641266   88.871277
H   37.213329   44.829926   15.079163
H   19.936630   78.809830   84.175941
H   88.712524    8.926987   30.598949
H   48.750587    5.659485   53.195755
H   99.725693   87.604813   67.467934
H   12.109358   42.782204    5.954920
H   25.942093   97.406693   21.415993
H   35.295319   20.250385   90.882034
H   79.469543   99.991508   85.332314
H   59.740223    9.104683   29.264889
H   10.028915   78.160896   10.147264
H    9.580063    6.177433   78.566856
H   18.499878   88.361397   27.009262
H   46.780685   23.718182   80.817268
H   16.847929   39.388336   12.529989
H   79.186638   48.570835   17.292816
H    8.100388    8.863461   35.807404
