100
TIME:    8.378, STEP:  8378
H   50.751945   53.718529   91.475723
H   69.096573   58.857082    6.364293
H   23.781054   76.650986   24.994972
H   82.882828   87.476189   80.936470
H   20.125010   44.290897   38.542480
H   98.095947   92.131584    8.447066
H   13.879636   27.060457   45.623676
H   61.392014   13.405936   38.953873
H   47.680641   80.782074   72.722885
H   45.927040   36.680668   35.753304
H   20.953873    3.349731   32.738441
H   36.076736   43.636333   96.574348
H    9.512447   54.876289   92.524643
H   40.252342   79.252541   94.808891
H   82.365181   21.668564   48.002083
H   64.662048   78.958397   37.594025
H   50.398140   36.110142   36.070747
H   80.222305   87.165611    9.104219
H   75.753876   29.820660    4.748601
H   66.795395   27.898016   86.745827
H   67.114326   22.160732   29.851271
H   65.587364   55.205902    5.814173
H   73.883827   26.487078   92.645157
H   40.620941   37.053436   84.850998
H   29.938278   21.742714   98.413368
H    8.104397   79.120041    2.474672
H   39.634636   94.212845   66.203659
H   25.630678   47.496418   43.705116
H   93.342064    9.209919   61.139366
H   22.242691   83.483749   49.415314
H   45.783222   73.326546   46.538383
H   94.749443   21.037441   23.670616
H   60.493046   55.507851   52.553360
H   32.093185    5.929029   18.799414
H   72.450386   25.337822   34.776760
H    0.923287   41.631332   93.087227
H   83.357994   97.713631   68.618980
H   17.714539    5.628885   13.654098
H   91.433281   98.876427   32.421501
H   74.078873   27.862764   97.197876
H   62.674515   43.650917   39.726528
H   94.161591   74.457489    7.672920
H   83.388275   13.744938    6.625738
H   44.379887   53.269211   99.892120
H   29.926666    1.341701   73.039238
H   69.979210   22.710182   17.197844
H    7.192216   80.461983    5.886734
H   56.698971   81.660675   86.960732
H    9.929428   38.583893   10.271389
H    1.637976   58.251957   97.742241
H   42.926319   60.801735   41.744354
H   12.299299   86.322784   24.073116
H   82.653450   70.587219   16.290937
H   82.676147   70.512833    1.515152
H   73.725960   92.812500   71.604248
H    4.030548    3.720881    7.419907
H   27.380920   47.802895   52.805000
H    2.213012   85.688301   97.756004
H   51.030544   92.768456   68.307953
H    6.158132   71.749863   25.320335
H   88.190964   88.955688   61.180065
H    1.566323   49.960831   16.276207
H   42.843235   35.583771   58.965851
H   18.341637   87.401550   99.674271
H   64.862442   91.706879   75.775467
H   86.675240   25.778008   41.557102
H   15.385805   38.011471   71.551865
H    1.639856   96.683525   66.719452
H   74.461426   47.796684   34.779343
H    0.177563   69.448135   84.074005
H   55.991596   25.361504   61.653755
H   83.359192   73.417381   70.149094
H   60.729965    3.902028   46.939190
H   45.774715   19.176628    5.361776
H   66.047821   40.651371   36.527149
H   23.717493   44.524406   32.196609
H   27.684219    0.662408   39.327179
H   25.591433    2.907436   77.129456
H   63.266815   28.909893   11.154737
H   88.660728   52.630302   99.149132
H   74.828468   15.956613   80.724548
H   69.973740   98.803085   86.100441
H   47.802025   47.227940   27.821407
H   26.542751   29.083097   98.217094
H   44.391647   24.826763   35.599785
H   58.474773   16.790962   23.577118
H   26.702532   94.203300   23.038673
H   90.770317   34.658028    8.711182
H   29.553020   27.698256   59.669563
H   25.610792   64.584732   23.710810
H   66.884972   25.818981   10.390159
H   98.186058   25.584858   93.162895
H   22.499302   78.899467   66.888184
H   56.966240   21.456409   91.714500
H   11.739922   99.278610    8.604475
H   85.910019   64.893860   34.714485
H   97.596458   48.474876   55.362328
H   22.105837    1.004113   10.692141
H    9.604436   72.980431   43.292553
H   59.599735   63.637547   90.660568
