100
TIME:    0.352, STEP:   352
H   93.518471   89.741188   98.823746
H   91.478676   23.829605    0.204616
H   85.812286   99.228539   19.206810
H   81.535690   18.147757   20.868597
H   92.018219    0.971875   56.160912
H   22.557961    0.830542   13.604990
H   34.522442   85.106346   17.979631
H   92.219788   19.054852   75.875069
H   44.975166   52.450058   77.930550
H   65.220985   21.440361   21.473368
H   67.512848   80.406082    5.843407
H   42.406353   41.334511   67.873314
H   20.872005   40.410995   90.143059
H   37.652912    3.991970   84.027412
H   84.783913   38.580894   33.851757
H   87.370544   80.949104    3.820746
H   95.766289    5.275353    5.403855
H    8.666656   77.582825   87.343063
H   50.745499   93.119141   81.907166
H   83.121071   98.151611   40.202171
H   43.388367   21.174446   47.688400
H   96.099770   44.564537   89.283333
H   81.044319   91.759422   22.279175
H   86.336899   40.903446   80.932571
H   16.993982   58.258274   39.157791
H   45.044971   17.121044   56.179893
H   31.725054   27.844410    6.951182
H    2.840769   72.869354   78.410294
H   18.825211   81.028313   40.532501
H   14.491027   82.127731   11.371773
H   29.948427   53.608101   81.557610
H   87.982941   42.785545   66.677681
H   95.151794   42.727882   29.507895
H   92.974709   41.463928   56.921898
H   72.022316   32.311783   46.162148
H    3.159781   12.137049   19.433149
H   13.560735   91.644386   36.201427
H   49.440445   52.511623   47.280376
H   34.895466   72.993828    8.388671
H   30.039299   79.230507   65.729851
H   11.187000   68.256996   50.633167
H   99.985405   27.655298   19.337545
H   14.273200   65.610779   26.898769
H   56.881699   18.670721   15.148613
H   26.122414   18.003643   86.228821
H   73.455833   69.821342   84.698662
H   39.796864   44.729862   30.631048
H   56.258213   99.007126   90.357727
H   75.317863    3.297370   30.432142
H   33.272350   36.107059   59.044380
H   43.517765   35.660606   57.128315
H   22.239191   31.075638   50.954674
H   16.180819   24.049744   82.426857
H   68.535950    1.458693   47.348835
H   12.736307   89.362976    3.393026
H   94.006668   12.162008   80.643890
H   18.567574   79.390053   89.465492
H   99.848328   43.644737    4.487967
H   18.038818   53.641663   84.460526
H   35.790054   54.844612   53.597862
H   81.904922   62.199501   86.951080
H   86.417969   24.668991   79.428497
H   98.108284   83.149544    9.409453
H   67.211678   43.709274   17.583197
H   46.294075   32.730213   28.341932
H   79.721504   24.774158   66.998848
H   59.327110   60.529972   84.056503
H   56.050758   37.668930   83.030235
H   74.446861   24.493843   38.155926
H   37.517113   65.849754    0.990562
H   10.854483   71.454460   57.925724
H   44.942768   39.843391   82.393745
H   84.040451    0.896595   52.723621
H   22.443161   27.104113   82.288200
H   79.142502   29.144552   28.082249
H   33.980145   30.132093   72.243607
H   98.913879   96.035271   97.261902
H   48.517929   27.703983   33.879887
H   78.425499   52.470776   21.613380
H   82.262741   89.783699   90.596130
H   17.770168   32.923260    1.027244
H   67.734901   46.526382   57.346252
H   40.067974   13.132648   63.426117
H   74.384857   42.282688   31.278847
H   35.190689   26.865860   13.629910
H   43.191784   21.983383   66.227196
H   90.663994   77.759651   40.327877
H   61.621674   77.112099   92.080086
H   62.987984   74.573479   25.320854
H   35.214455   94.802902   36.795544
H   38.427860   92.438812   40.895336
H    4.331139   21.979750   40.231010
H    7.869224   38.178070   46.146660
H   81.250099   34.583786   50.551533
H   50.506199   18.199230   24.175121
H   22.995377   81.831291   49.267738
H   34.661888   87.881065   16.945198
H    8.157584   19.234741   50.403473
H   91.943718   38.367626   15.566853
H   61.101879   69.662773   63.783432
