100
TIME:    1.364, STEP:  1364
H   25.080385   96.935654   97.897232
H   63.328102   78.699730   64.040947
H    3.200863   72.035774    7.324217
H   81.705551   76.452965   65.399406
H   82.953827   82.088142   28.720665
H    6.865065   99.730370   13.826895
H   81.482674   53.442417   97.119347
H   12.678589    6.605944   82.956200
H   20.098274   55.150375   14.227723
H   37.564552   35.968376   61.104988
H   73.379074   21.125751    8.362444
H    3.778457   92.061134   95.838509
H   56.497269   79.183403   89.558495
H   87.544579    0.871830   61.042240
H   97.091103   48.187603   85.206345
H   46.681152   92.430595   19.816879
H   14.403744   72.200485   97.544746
H   30.292374   28.369507   52.259079
H   66.505180   35.575195   35.223042
H   55.767883   76.847519    9.200052
H   83.334946   20.426620   20.223335
H   93.136955   45.900261    3.112337
H   67.532661   83.528893   93.323715
H   92.311119   53.040775    5.771123
H   80.799797   77.996895   46.626175
H   40.404682   86.966049   61.324089
H   44.459755   85.777542   27.033316
H   17.451530   20.106609   11.858626
H   40.829910   72.844788   92.695946
H   53.294842   57.080978   91.823051
H   69.757637   44.361389    1.477354
H   51.880924   14.827914   72.991768
H   66.437210   68.685570   20.676847
H   35.734032   48.720222   14.288353
H   46.867470   55.812233    7.787551
H   91.148956   91.632889   15.950974
H   10.624707   54.583839   15.943000
H    7.615686   33.989071   18.695644
H   89.399887   51.390617   11.393472
H   34.720093   84.490242   45.351109
H   42.026459    2.985413   74.479782
H    9.032646   73.076088   66.883133
H   22.989767   71.679443   99.997047
H   92.259163   35.630608   14.099067
H   38.338676   78.073380   72.831253
H   60.490017   88.932991   88.710060
H   50.482655   99.319687   39.278511
H   56.312260    9.427065   52.974514
H    4.903369   19.483154   90.063400
H   54.497234   51.510349   88.265099
H   43.440556   37.958488   67.798660
H   71.420860   37.169910   84.517807
H   37.174072   29.917664   23.650253
H   45.104366   84.950783   92.006790
H   32.171951   78.080917   11.980616
H   95.272903   11.098448   46.193024
H   82.723175   50.189430   85.715126
H   24.491497   48.074913   78.421707
H   97.853523   96.400269    6.767921
H   69.007629   32.629574   24.814171
H   45.743176   15.140292    8.048283
H   50.500122   15.249281   33.638161
H   66.753342   14.138718   39.982521
H   36.702591   49.214310   90.107124
H   86.461845   51.904293   22.587511
H   17.552437   74.464607   26.835676
H   78.132126   95.520538   32.917065
H   86.144859   95.545151   31.409689
H   24.883408   51.777985   74.685555
H   58.016228   16.747969   98.860931
H   78.718819    2.593817   45.788395
H   61.498051    6.256710   56.488251
H   18.056419   50.836147   26.773518
H    0.169537   63.064461   22.142021
H   27.936195   30.584509    4.797968
H   57.907360   94.991966    4.150341
H   90.797264    8.324266   15.169514
H   96.063522   61.533470   89.768265
H   26.932619   49.506687   32.897850
H   32.632492   34.667465    3.411426
H   37.574398   43.392864   61.511623
H   43.665524   53.135513   72.720535
H    4.102318   30.022547   59.814121
H   44.001453   28.880838   38.843666
H   85.913605   63.566658   15.527819
H   19.897686   59.158703   36.503670
H   58.253197    4.179024   88.583801
H   77.912872   96.089630   81.564156
H   83.988960   18.226950   17.040138
H   45.742752   53.158127   72.975899
H   79.843025   47.083157   62.266918
H   79.209145   98.092339   59.510216
H   72.800957   68.499374   24.437876
H   79.063850   95.969017   18.786575
H   33.010532   27.550728   47.429314
H    6.582427   41.867668   96.996368
H   54.334305   45.957531   58.744263
H   11.873290   27.851318   34.212646
H   43.734123   42.729961   30.795208
H   23.950424   43.668026   66.313179
