200
TIME:    0.391, STEP:   391
H   14.111134   61.973858   17.921583
H   29.310154   35.082592   96.027176
H   14.972801   75.747398   52.785759
H   22.932501   78.738686   40.551083
H   13.606937   87.556320   51.487484
H   84.706299   48.716618   61.079899
H    5.546943   55.196991   52.574085
H    6.272452   95.406921   19.712471
H   93.560776   85.242470   44.035774
H    5.545730   72.783745   90.116417
H   17.456869   97.819893   97.733414
H   31.402206   46.053249   19.937111
H   14.880282   92.019249   55.102928
H   97.266449   53.844013   49.542080
H   12.331554   73.106995   42.607059
H   24.899025   19.744781   51.065617
H   91.310883   14.790575    8.100763
H   32.976460   90.426033   40.832085
H   70.049461   24.235205   44.706692
H   90.536652   77.631004   31.617214
H   59.897232   84.296043   18.922482
H   86.667381   54.586082   64.755745
H   90.483459   61.443565   45.513046
H   11.806579   89.435867   91.112595
H    9.809717   18.777018   40.022266
H   18.536097   69.037544    1.969374
H    1.819867   61.826618   55.153107
H   97.975616   76.358505    1.128593
H   17.428421   51.940010   37.454174
H   86.225899   24.809441   93.402557
H   13.164350   57.757816   16.379427
H   29.180168   67.045395   97.320755
H   23.474792   12.234719   75.023567
H   91.429008   63.742661   40.929619
H   40.742115   83.561569   33.070507
H   28.128803   46.479084   81.207993
H   90.598434   71.169884   87.088539
H   25.445917   48.661301    8.378191
H   47.481712   40.993523   47.788097
H   88.634636   39.067539   57.797943
H   80.549240   98.170052    6.536297
H   20.855211   39.940510   35.353741
H   73.983047   84.313141   55.935253
H   36.944870   70.567772   24.148804
H   33.936230   80.902153   49.813057
H   38.934856    9.908750   44.330109
H   82.819687   18.814365   99.489967
H   86.439667   65.548302   42.219254
H   92.920052   23.021923   61.275200
H   56.713760   18.482935   99.324043
H   74.616180   68.584885   21.884468
H   15.365844   38.296978   66.788170
H   56.248646   90.100937    9.903686
H   20.159254   85.370239   83.939270
H   70.807388   73.026741   85.889862
H    3.369942   68.630127   83.592773
H    4.999549   17.316872   48.034824
H   69.058395   62.089657    2.578077
H   24.994911   77.394424   10.778591
H   39.610886   95.141273   64.202843
H   49.930477   12.430355   37.824772
H   92.649742   16.782591   50.223404
H   75.607323   28.334541   79.790604
H   27.784624   65.367767    7.038873
H   73.775719   78.330154   24.104240
H   32.816494   22.427593   35.577499
H   80.534767   19.976889   88.954842
H   96.495827   91.793236   90.261093
H   21.893578    7.893796   60.068573
H   44.367752   44.261818   50.974529
H   58.398922   79.203804   77.320389
H   27.896677   19.852772   43.707832
H   82.286270   28.273617   94.439461
H   12.784712    5.645617   64.968361
H   80.983688    3.315918   60.512703
H   57.130463   13.745605   61.890751
H   94.789352   35.571568   70.009697
H   20.962381    8.719566   42.804100
H   12.678566   36.420853   31.594090
H   66.000816   89.824806   87.100555
H   49.776890   27.549995   98.892014
H   33.276001   65.874893   83.189171
H   10.410589   15.322644   85.861649
H   19.749966   66.797234   98.773041
H   33.531078    0.920604   53.502949
H   28.921404   80.491074   24.639484
H   42.622868    3.098760    2.117499
H   74.075768   12.924333   17.137579
H   70.307358   72.424797   77.714661
H   22.687817   92.815384   53.204266
H   34.912945   36.196327   80.082848
H   83.003616   89.860306    1.662647
H   54.432861   15.159098   91.429268
H   53.256760   89.008698   73.250854
H   28.951109   54.883636   74.228760
H   63.018806   31.085346   21.961956
H   81.353920    9.056406    4.832411
H    2.743610   30.785124   50.023251
H   33.596352   68.265404   53.416370
H   69.829926    0.381169   27.287271
H   16.603239   84.601379   76.050179
H   96.187340   78.941063   65.031677
H   26.309484   31.651669   32.613007
H   29.131729   68.218277   96.158730
H   25.138573   25.488346   29.983124
H   93.401031   19.379963   36.821285
H   72.811310   31.971724   55.556488
H   63.861732   40.072010   12.902709
H   76.634003   38.183605    6.434208
H    9.217391   25.955038    6.276297
H   49.181232   94.754608    0.902090
H   92.057137   67.142517   92.231155
H   54.471424   82.026909   90.650909
H   62.712669   16.141973   71.060089
H   58.811241   88.256393   21.478178
H    7.876095    1.379839   85.746391
H   26.366604   10.568941   85.940414
H   40.005009   34.428856   30.960167
H   24.596901   63.382793   76.076752
H   74.767532   49.688595   54.975651
H   42.130562   22.762859   82.571823
H   11.773743   23.902950   52.629848
H   35.876839   15.454085   28.508564
H    1.852548   61.884884   11.252687
H   72.398079    5.213389   87.819046
H   53.254436   66.483871   22.615864
H   91.633293   49.894974   65.223145
H   72.125778   88.754265   36.277882
H   94.325958   47.017822   81.449127
H   75.064095   23.433641   69.074112
H   54.704391   79.794159    9.181904
H   75.904099   87.549026   12.887937
H   91.944679   89.941284   98.498390
H   93.516411   16.874559   51.565907
H   11.885643   98.639816   49.478157
H   58.336311    1.433056   81.457016
H   69.142708   86.949303   62.855713
H   92.506325   59.506233   80.812500
H   50.260117   46.445320   71.514374
H   43.529739    1.847784   91.261765
H   58.093235   58.628132   19.787643
H   50.286896   45.598820   49.766945
H   50.151386   59.540283   94.291084
H   50.793938   21.061701   80.626656
H   47.399647   64.759163   54.006184
H   51.472797   64.577484   22.614246
H   48.302574   96.116524   46.200706
H   38.529297   67.797897   67.958641
H   69.222015   58.487820   96.443352
H   14.275342   90.323364   84.346184
H   70.897804   63.874386   50.204254
H   40.143742    2.931608   43.420330
H   83.190514   26.192448   98.163719
H   13.901561    4.608726   72.221069
H   19.600258   57.866821   63.485271
H   67.984680   43.903316   58.706554
H   60.891857   65.411858   82.543747
H   48.192890   34.237160   13.261755
H    5.470841    1.165369   97.005051
H   61.986755   50.782715   84.035828
H   55.439198   78.274780   79.401031
H   36.514462   22.273779   34.235836
H   71.719154   27.986444   37.169266
H   16.817303   24.615585   64.738159
H   57.508377   27.212053   11.308227
H   14.515286   59.634720   61.476387
H   72.299683   95.124641   53.822456
H   23.764122   37.802746   54.256763
H   96.124741   27.679153   36.500378
H   33.363873    9.320204   88.702942
H   76.480286    7.429559   35.963402
H   40.946510   59.838558   57.921810
H   40.590481   70.965958   86.175308
H   69.366547   70.926010   77.742622
H   64.419647   93.900635   92.131409
H    5.569411   48.476494   23.431614
H   33.866524   57.638172   93.224594
H    3.068275    9.344864   66.811020
H   71.739937   17.869303   67.368767
H   79.117569   56.074867   88.515121
H   78.660988   90.600540   38.208462
H   22.273369   30.290371   75.128670
H   58.683304   90.009079    9.058608
H   54.769131   25.499855   82.745415
H   87.475670   81.785042   77.774734
H    2.421566   37.497925   84.709938
H   36.609894    1.938053    2.610920
H   83.166664   73.620674   30.810083
H    2.245527   61.846771   68.269165
H   52.359455   57.451908   67.610794
H   55.033760   26.028530   78.223152
H   46.415051   89.032761   22.701059
H    7.454559   21.116369   61.265209
H   32.465397   69.557442   36.356392
H   79.712738   47.510727   21.322348
H   75.696793   10.753970   27.497599
H   10.464993   89.676796    8.563397
H   24.521088   94.405121   42.708202
H    9.899691   12.034405   71.263817
H    6.432827   29.876993   95.650932
