100
TIME:    4.086, STEP:  4086
H   41.002350   47.314270   95.405167
H   87.630562   26.277773   35.740967
H   49.989342   67.867241   75.380409
H   82.162430   64.307060   16.195066
H   58.573120    0.268424   54.916061
H   64.664070   96.781425   83.396507
H   38.823025   37.244183    9.983529
H   98.734749   42.092480   33.031017
H   53.186256   93.441055   42.888073
H   63.180870   75.052269   67.695190
H   20.185257   30.651417   46.165028
H   99.887383   28.500513    2.083591
H   83.331070   14.501556   19.016678
H   52.765984   92.481667   68.187485
H   30.203026    5.049640   54.363255
H   37.235901   54.352592   93.867126
H   95.535225   52.226902   45.353050
H   88.452599   95.998314   57.887997
H    8.909180   49.767372   78.628082
H   82.433891   19.045427   94.526543
H   21.807678   49.443707   46.341423
H   54.109146   49.508209   71.317642
H   31.190041   61.391045   15.444499
H   39.407845   85.686829    3.610399
H   83.445709   62.120377   66.715858
H   27.920122    5.861273    6.190125
H    9.738111   72.628372   81.042274
H   87.777069   47.160370    1.831362
H    0.016464   19.805897   64.024757
H   57.668411   89.710930    8.214161
H   76.866096   88.455116   86.107628
H   23.749586   39.619156   21.002541
H   58.170734   69.531151   65.896103
H   50.745026   99.265320   99.615349
H   79.203964   50.049889   73.536392
H   27.826117    5.462040    6.582825
H   71.698898   54.897934   30.426016
H   95.111092   84.175514   10.779884
H   72.602600   92.391594   48.348289
H   78.337456   29.665371   59.513294
H   56.002426   96.385849   38.610088
H   64.394730   95.239197   94.765549
H   46.435947   88.002472   96.610283
H   18.440203   81.248322   80.241821
H    2.225813   70.677002    5.760448
H   25.372662   40.851002   99.758217
H   73.656540   47.048790   64.689384
H   56.457630   37.454437   21.396416
H   84.468002   94.047699   81.482513
H   11.573192   92.926430   97.885109
H   43.232883   75.166451   96.498947
H    3.705202   84.589203    5.822637
H   93.629219   45.700745   65.562325
H   82.069969   40.539513   12.120578
H   15.460600   16.675264   35.099995
H   98.678726    8.235861   53.529724
H   55.285305   71.646843   44.600105
H   21.803703   91.015099    8.308661
H   12.531431   11.411985   97.798347
H   89.385223   41.852077   47.395027
H   17.448523   88.554344   95.819740
H   53.894493   89.910172   10.474637
H   51.459599   28.462135   53.281181
H   23.617357   64.021362   16.203953
H   94.502251   34.501705   76.080345
H   50.335640   39.145576   87.780014
H   59.741165   89.626282   64.334396
H   98.117638   51.220230   61.537029
H   60.549599   56.192429    3.964809
H   13.169123   53.657608   93.129181
H   92.282799   17.388287   13.133118
H   37.057838   15.918971   55.780445
H   40.577072   16.196758   56.985695
H   40.262447   90.809258   60.377708
H   59.172283   34.464184   11.144301
H   22.252283   69.448204   20.993908
H   37.937187   72.399948   63.312016
H   23.948040   83.547371   40.094818
H   57.449722   41.516857   63.274765
H   99.139923   86.421715   68.908684
H   90.831833   71.553207   24.199331
H   47.902939   70.912247   45.109009
H   76.318977   75.460754   19.071301
H   31.260794   61.806953   90.224197
H   53.375259   93.302406   51.660507
H   57.255268   59.142067   25.527603
H   40.049431    6.267448   18.379911
H   21.726542   78.159279   53.250145
H   40.480576   66.670250   94.772591
H    5.080802   41.167229   70.280121
H   91.238525   94.064201   19.750650
H   80.619049    2.789833   11.383453
H   47.373970   50.118256   34.981182
H   42.155544   61.080246    2.317122
H   85.945381   83.730644    9.979323
H   31.408463   34.378914   56.401756
H   38.274567    2.167921    2.199064
H   21.864462   51.027527   90.653603
H   14.065575   54.463436    2.790710
H   93.008736   73.778267    4.122268
