100
TIME:    4.404, STEP:  4404
H   19.497684   18.151978   95.114029
H   78.847908   43.510696   55.793076
H   55.455452   90.745811   71.648994
H   82.215805   51.205864   98.764046
H   55.724823   25.757524   46.293533
H   59.732037   96.436913   14.888756
H   22.157101   58.718014   34.851543
H   73.740578   69.603058    3.832586
H   45.369209   62.866745   22.870485
H   54.490410   79.618279   80.146179
H   90.605682   43.446918   15.534264
H   87.751793   44.440300   79.447731
H   63.038773   95.271004   87.418457
H   37.020287   91.501503   92.385880
H   34.070869   76.644470   39.076099
H   24.449387   26.539238   67.470642
H   69.963631   73.260239   74.301842
H   95.246193   80.533531   46.861279
H   13.862160   63.108757   95.383057
H   73.864738   12.292246   16.177378
H    2.937112   17.784908   37.711617
H   84.596115   49.930359   44.236984
H   26.944283   58.804771    6.345840
H    9.862221   89.500732   79.993973
H   72.071930   36.900574   69.064369
H   26.470404   96.460876   76.285713
H   82.317345   59.409878   87.350258
H   60.944157   62.003540   12.343253
H    6.931508   48.657131   48.992348
H   69.862228   81.840508   33.493477
H   89.380165   16.970997   60.948479
H   43.828381   30.834076   91.563728
H   80.569557   46.264397   94.544052
H   64.181030   70.122437   86.218163
H   71.299576   26.011620   92.901901
H   55.469715   30.369251    5.582362
H    2.200319   43.252426   55.483265
H   81.966225   78.357613   33.219463
H   59.180279   85.462517   17.531935
H   48.385506   99.895012   84.532166
H   34.268997    7.297204   46.102032
H   35.814713    9.511172    9.705248
H   49.175068   89.909424   19.579699
H   98.134354   86.576141   11.334889
H   74.640617   58.130104   32.973286
H   21.270046   46.916370    1.050559
H   76.140915   64.342369   67.741478
H   56.474613   40.729736   41.072472
H   93.764999   67.709442   68.798615
H   18.242672   97.764168   75.642189
H   43.208622   44.465981   99.851883
H   19.158548   55.081661   84.947449
H    0.223550   47.544617   47.092266
H   74.704185   35.349983   26.152203
H   90.141602   44.544422   37.805149
H   99.076614    7.901142   42.704254
H   75.445541   62.471153   74.844460
H   98.124893   60.984245    0.117309
H   37.610519   24.848995   73.386452
H   68.399048   66.295288   38.350349
H   37.508789   73.764549   71.024513
H   42.608055   86.950272   96.086121
H   73.048866    6.761718   31.474968
H   45.454643   65.753632    7.569294
H    7.123912    9.103462    5.694133
H   30.800301   23.336800    6.582445
H   34.227798    0.621499   79.687057
H   76.151299   69.406631   76.739265
H   76.397720   33.342972   84.021484
H   19.611757   69.652344   92.459564
H   82.185173   95.751373    9.318001
H   10.837603    5.364699   79.062614
H   19.842505    0.468044   48.831413
H   33.260586   70.686790   41.482872
H   74.504768   34.917873   35.251553
H   29.770914   89.827843   99.596848
H   66.810532   44.837223   68.935829
H   38.888256   62.755138   57.657700
H   72.699440   40.582790   66.822289
H   83.544647   69.103874   41.512627
H   97.052475   74.843063   43.205273
H   71.763313   72.989029   18.517817
H   96.436424   80.769714   49.359211
H   53.137405   89.018623   61.178596
H   37.891586   73.412849   20.833878
H   49.935581   70.822548   47.610397
H   61.287926   83.146240   33.543335
H   26.844500   52.699287   49.943306
H   47.079697   48.964226   92.171761
H   76.966293   28.083015   81.649048
H    4.252468   11.235573   26.466227
H    4.148180   26.704041   17.442949
H   67.758461   59.660294   59.572613
H   72.891708   80.368484   23.758120
H   80.447731   55.246925   17.286167
H   57.673935   21.822159   39.976738
H   13.033769   20.416943   83.910690
H   23.031439   53.735107   85.563545
H   98.916870   55.834209   76.156212
H   12.761133   65.616707   73.489487
