100
TIME:    2.756, STEP:  2756
H   30.944794   69.282097   96.622818
H   24.607155   54.171791   51.847614
H   27.127935   72.181808   90.986641
H   81.939194   19.103136   89.097351
H   70.485809   93.663071   90.978836
H   85.282967   98.222313   51.682270
H    8.529108   47.436661    5.975706
H    3.270134   27.031107   55.147984
H   85.880196   21.315353   26.606258
H   99.527763   55.955437   15.610873
H   43.898621   77.136246   74.277008
H   50.653244   61.834702   96.754448
H   67.951958   94.965393   51.204529
H   18.620018   96.581093   66.973976
H   14.023483   23.850111   18.293440
H   90.711090   70.679230    4.269046
H    2.485945   64.257172   24.277903
H   60.039322   60.676369    3.998184
H   88.191460   93.969772    8.560274
H   18.268250   47.287121    3.973927
H    0.731769   81.848969   82.439819
H   26.600754   47.742615   84.579437
H   48.947456   72.207848   53.498276
H   62.979248   69.735596    2.388365
H   31.012794   67.596313   56.895828
H   34.021992   45.488613   30.851934
H   24.425491   27.912893   54.656239
H   99.999229   85.080482   57.872417
H   71.097244   99.138191   26.894114
H    6.671170   22.629318    2.483109
H   24.520452   69.190582   91.333000
H   39.772621   76.365196   44.127327
H   64.487762   66.840218   46.079201
H   94.548241   21.151688   55.644852
H   12.264386   50.587708   92.550285
H   12.177716    0.982406   11.166047
H   44.135101    3.604324   25.627195
H   50.079529    8.511410   16.925327
H   28.740936   21.367952   77.235489
H    3.609406   54.176361   54.871342
H   46.898052   50.747166    7.276233
H   83.927574   35.549149   32.279739
H   34.979877   80.026855    0.542896
H    3.370423   58.963005   50.200623
H   17.593378   23.154034   91.948952
H   42.531399   15.483265   94.359962
H   63.265202   74.718170   51.914742
H   56.386600   23.758913   39.103569
H   45.589142    4.198362   34.535789
H   83.684776   72.693123   90.906769
H   43.334354    3.569153   82.475662
H   39.068501    8.002609   93.134972
H   66.049416   37.988953   42.805557
H   12.872311   62.244148   53.430817
H   21.354828    0.110326   23.791090
H   97.014603    9.635527   98.806061
H   70.969124   10.023751   18.106117
H   20.838959   16.617313   42.568192
H    7.637420   55.216686   99.903191
H   77.150650   39.623676   85.223396
H   33.551765   50.404156   99.517166
H    1.098660    2.290083   70.655701
H   61.171688   19.214716   44.486008
H   32.288582   56.786453   52.317463
H   41.712780   40.726963   52.222633
H   32.039650    5.263977    9.141285
H   66.449471   43.644138    0.121177
H   89.989876   75.155579   97.955338
H   94.260002   51.757744   87.380867
H   86.221008   86.761787   95.929779
H   34.517891    7.881146   29.089424
H   46.722000   60.058838   58.404175
H   27.295652   81.983147   91.082024
H   69.541069   74.975174   39.411278
H   95.049950   32.566677   10.321209
H   90.810448   84.206779   10.486229
H   17.181543   87.675186   39.791050
H   61.462215   70.513664   66.645065
H   93.673706   45.423489   48.429565
H   64.365913   58.857708   83.489395
H   64.814682   57.793743   44.708057
H   48.110306   62.226334   56.322609
H   92.172012   53.258911   92.395355
H   39.758717   47.996063   11.699615
H   18.134930   76.495636   80.589195
H   87.861145   10.286060   33.168331
H   51.221733    2.969277   54.960052
H    0.321246   84.642487   67.082893
H   12.877251   40.722069    5.652202
H   22.670803   95.884598   22.738651
H   36.809509   22.248276   91.663406
H   82.207169    2.773958   86.037468
H   62.114262   10.213297   32.127419
H   13.605146   80.405083   12.641980
H    8.940258    2.863130   79.417107
H   21.555923   86.900276   25.098175
H   43.843765   25.841549   78.689384
H   16.983709   39.703369   11.937962
H   77.424034   48.730328   14.193581
H   10.398209    7.913072   32.243805
