100
TIME:    5.542, STEP:  5542
H   42.539223   13.792285   94.072159
H   47.418159    5.175560   27.545944
H   75.021454   72.617767   58.291981
H   82.406815    4.319145   36.386909
H   45.531860   16.973162   15.439104
H   42.081020   95.204033   27.588881
H   62.512310   35.560207   23.844698
H   84.296021   68.054428   99.345146
H   17.394997   53.452713   51.238495
H   23.391790   95.958275   24.708143
H   84.751694   89.237106    5.916367
H   44.319237    1.482640   98.443962
H   90.420456   26.455132   74.340752
H   80.674355   87.993874   78.989037
H   47.910378   74.993790   84.373749
H   78.691742   27.005569   73.006561
H   78.452400   48.530201   77.898468
H   19.579687   25.163689    7.411837
H   31.586975   10.845729   55.334782
H   43.204918   88.123085   93.657784
H   35.406578    4.493061    6.825310
H   93.697281   51.441071   47.325775
H   11.749736   49.549492   73.786972
H    4.125912    3.126681   95.475693
H   31.369606   46.652031   77.468788
H   21.282759   62.825531   69.272247
H   84.186279   12.101940    9.927355
H   64.922890   15.121513   49.963234
H   31.676720   51.905430   95.199554
H   13.498503   53.675285   23.961460
H   34.167473   19.017670   70.913536
H   15.682325   99.394653   86.213371
H   60.729374   63.003181   97.064079
H   12.263898   65.831505   38.274773
H   43.012802   39.987473   62.195847
H   54.394047   19.501900    2.002681
H   11.349263    1.574483   45.153179
H   34.931156   57.534878   13.525755
H   11.141604   60.666008    7.251577
H   41.198925   93.359550   74.068199
H   56.495071   46.341309   72.912819
H   33.537102   60.587311   63.162724
H   58.977329   96.733673    1.779094
H   25.468517    5.665172   22.603651
H   75.927650   13.234050   30.354765
H    6.586628   68.621994    5.676161
H   85.031540   26.231178   78.663750
H   56.535389   52.450775   11.485435
H   27.028580   73.460754   23.400864
H   42.110180   15.084135   96.050217
H   43.121799   34.599533   11.848615
H   74.463478   49.483639   10.239113
H   23.829411   54.143127   80.998863
H   48.350029   16.778648   76.369835
H   99.532188   44.279575   47.485859
H    0.498266    6.704077    3.964050
H   47.589798   29.634880   83.077705
H   13.387010   53.514290   70.806015
H   27.362616   72.932121   86.020988
H   93.304520   53.765537    5.982918
H    9.293922   20.843716   82.297783
H    2.221295   76.357925   44.597099
H   50.307415   29.107306   53.438873
H   23.598381   71.952759   76.675720
H   52.295296   18.213417   11.671245
H   60.892143   66.763847   73.869621
H   42.923798   39.963589   34.630753
H   97.541756   34.490818   31.142248
H   33.114758   51.573555   12.647235
H   42.665466   26.888245   90.063263
H   46.049644   18.323059   95.667061
H   17.004173   67.596741   62.382355
H   45.642914   44.175461   19.650368
H    8.209911   98.666344   73.866844
H   29.373796   36.541454   21.519386
H   56.677208   62.764435   23.023535
H   70.133415   46.202724   89.061287
H   92.353561   88.342705   20.503092
H   27.272251   37.240124   79.515739
H   27.738316    7.119788   43.472931
H   19.320108   86.616196   11.221637
H   57.153206   80.411530   23.352648
H   68.419884   99.801208   57.736546
H   31.430998   86.399826   57.240101
H   82.479454    2.228625   10.517603
H   23.741230   12.620215   26.636658
H   37.292381    0.404233   87.807404
H   45.159599   61.598217   38.115814
H   70.695419   85.602837   82.864388
H   76.351898   81.263107   22.331045
H   50.824150   72.682556   50.498699
H   88.350777   12.290870   39.123726
H   40.706268   93.806709   47.575947
H   82.880562   49.399853    0.487763
H   60.773750   53.311764   43.434666
H   51.668076   76.884308   81.197311
H   22.704390   85.724831   18.463882
H   27.207602   63.424500   67.348183
H   44.704895   60.739681   80.836647
H   83.445831   36.417820   63.863255
