100
TIME:    2.932, STEP:  2932
H   19.043121   53.141960   96.461685
H   19.711403   63.714882   62.949665
H   30.153204   84.844162   88.921455
H   81.968735   11.851488   79.450867
H   68.909393    7.770231   86.206619
H   82.554451   98.031639   69.112419
H   99.305046   59.321548   19.739159
H   89.436874   42.256817   38.987705
H   81.553780    4.393492   15.527691
H   94.717949   58.482536   22.503328
H   27.527527   84.218033   57.323681
H   43.935349   70.656723   84.226372
H   56.756783   84.317200   33.712219
H    9.905654   96.038612   80.366798
H   16.164536    8.129422    9.833051
H   83.634674   55.285675   89.659523
H   88.333076   75.899017   40.299877
H   63.800430   52.117531   97.896179
H   90.933403    1.352559   17.832125
H   13.526917   43.550182   15.956781
H   90.287689   64.328461   77.662231
H   43.474045   47.976257   69.591400
H   46.597603   70.776451   48.462875
H   46.626953   71.846436   89.317604
H   24.718544   53.637840   58.194290
H   33.214985   40.245083   14.355326
H    9.248795   20.596792   58.148792
H   85.148155   93.295570   63.690655
H   74.924149   15.106116   18.574961
H   13.419614   18.273361   16.474194
H   31.447149   84.973541   77.408440
H   50.885414   71.501671   27.834114
H   76.884247   53.963020   61.934669
H    1.984618    5.022491   48.230057
H    7.889290   37.283508    3.267906
H   27.480633   14.808340   10.561128
H   61.015106   97.158676   39.495358
H   42.805725    5.290238   29.344639
H   21.311371   17.533663   60.179581
H   87.031693   37.699188   68.718910
H   34.869854   56.785618   11.422717
H   68.109703   43.448685   40.548538
H   36.495869   81.082275   13.255363
H   92.131561   61.913078   67.408531
H    2.326715   16.210552    7.009807
H   40.260769   18.840199   95.074318
H   64.640915   84.289459   53.605293
H   56.396000   25.570986   49.993462
H   50.733307   89.621574   27.514856
H   87.374718   75.370613   78.596222
H   43.320927   86.577576   84.331375
H   47.621967   91.671387   81.581749
H   69.699074   39.009460   32.583023
H    8.796993   59.371956   61.197418
H    7.342391   15.536872   25.286188
H   97.234818    9.450560   92.814606
H   82.127571    4.945046   34.845131
H    7.733703   99.996033   38.034988
H   21.517670   62.652966   86.392204
H   65.535660   53.152119   80.217537
H   44.653816   42.219952   85.794022
H   94.852196    0.651568   62.692833
H   73.114738    7.208391   32.414444
H   44.374886   57.743851   47.538532
H   48.699230   26.669724   68.613487
H   21.227638   96.514534   19.547329
H   52.328865   49.728245    8.618800
H   77.832405   85.221008    6.369155
H    3.031378   39.111504   76.343269
H   89.787415   95.613350   95.559174
H   28.928898   95.906044   26.977913
H   32.210648   54.217773   71.290009
H   15.819639   73.276604   86.570305
H   65.668510   63.838188   28.951073
H    3.535929   32.817776   23.663677
H   94.970360   95.486076   98.643768
H   33.161266   72.421280   42.903599
H   69.731018   59.005512   76.364059
H    2.114107   44.906521   50.394043
H   55.734566   49.271648   68.326797
H   68.257553   59.614544   55.227345
H   61.316483   63.375748   41.605812
H    3.306605   56.196899    9.158375
H   51.866505   63.056610   95.624451
H    9.564931   65.487579   63.527916
H   83.811340   16.750843   45.390255
H   62.976372   90.172630   63.352386
H    3.153826   70.551422   65.251350
H   16.529980   30.922583    4.212245
H    7.109880   88.644363   29.030216
H   44.012146   31.751755   95.380203
H   95.229385   16.009348   89.391716
H   73.401520   15.490826   45.740501
H   30.616695   91.080132   24.508739
H    5.896978   87.098755   83.461540
H   36.092789   79.950081   16.007599
H   29.873653   35.941891   68.567558
H   17.629583   41.201904    9.121830
H   69.039757   49.488995   99.451134
H   21.329195    3.395114   15.290408
