100
TIME:    8.637, STEP:  8637
H   33.236565   29.966936   91.238602
H   61.943405   72.891449   22.695080
H   28.233011   95.284790   21.954876
H   82.926300   76.805717   66.740791
H   17.804182   65.050888   31.519798
H   94.080688   91.850990   34.096786
H    0.305767   44.550148   65.877815
H   41.035126   35.812008   15.172572
H   41.313927   55.880356   56.419857
H   38.852913   40.399525   45.894203
H   96.862335   13.770833    7.790316
H   26.190742   56.618740   78.138145
H   92.996735   39.200577   66.785095
H   27.428370   78.454231   14.519077
H   85.510994   98.533424   35.547272
H   54.248459   56.305382   16.094269
H   29.570961   53.240200   59.648537
H   85.759094   74.562599    0.126521
H   79.788895   40.686756   18.393032
H   59.817303   22.397783    4.379714
H   51.744896   96.376068   22.821604
H   90.417946   55.549728   83.757965
H   70.425804   24.381636   85.235107
H   16.555712   40.151825   65.616486
H   20.675716    1.202057    0.325992
H    6.882727   71.484726   78.102402
H   17.300409   83.447525   71.341293
H    3.777237   59.585667   52.267181
H   98.973701   32.707851   48.895988
H   32.173164   77.073563   70.005371
H   55.977474   96.552605   26.047127
H   11.102707   13.882151   99.693748
H   78.735977   36.557884   75.886124
H   43.036346   82.193237    7.888854
H   66.004631    5.727896   50.535465
H   23.436995   61.919060   92.273109
H    8.200028   88.228767   89.027245
H    7.009903    0.888843   31.930244
H   80.501976   93.232933    7.323154
H   49.684174    3.615842   17.575377
H   44.973389   52.537048   45.828457
H   72.334549   75.473160   20.895405
H   85.617218   15.298578   25.332905
H   27.842632   57.618416   25.214764
H    7.460391   91.125465   95.202202
H   66.635796   27.649227   18.250071
H    9.217235   94.547005    8.373831
H   56.714779   84.328293    2.986130
H   17.499535   17.134270   99.939362
H    7.074482   62.194103   79.634056
H   42.908535   35.797264   44.475204
H   24.887346   62.290371    7.070757
H   88.024254   72.088989    1.248537
H   76.676971   66.288116   12.943427
H   53.104286   15.509994   73.805527
H    4.353132    3.448438   98.602921
H   43.799614   40.329613   77.437981
H   82.927185   61.229210   91.084984
H   71.458565    3.712029   48.423759
H   89.066154   91.656219   17.953758
H    4.528783   76.909912   40.987186
H   92.373894   47.550095    4.556978
H   60.427776   17.909521   41.205444
H   36.126972   88.812424   92.643616
H   75.141663   71.021973   99.894684
H   70.764381   12.902425   56.871204
H   94.605392   46.964787   84.056076
H   83.748993   11.496385   79.101151
H   87.368744   29.186592   18.534538
H    5.437867   82.458206   83.524673
H   47.765453    7.738202   58.547462
H   62.030289   64.817772   89.134628
H   43.842957   91.089928   40.297810
H   40.073917    2.784689   89.972847
H   78.524368   41.032742   56.164768
H   29.841158   61.124893   14.769206
H   51.206863   78.246460   43.921410
H   37.758266   85.973000   91.435791
H   75.687920   28.149128   14.045151
H   75.958916   38.521568   76.835991
H   79.898918   18.636087   96.204636
H   89.409805    0.483191   64.431480
H   64.185127   51.559361   52.487980
H   44.360764   51.246193   74.560265
H   31.780731    8.625206   10.493299
H   52.513142   26.304478   41.562790
H   44.000553   75.371895   35.388756
H   94.935753   13.932487    6.025598
H   34.928226   13.278206   57.551277
H    2.711483   53.928200   32.969315
H   77.484306   39.803226   15.859763
H   17.349436   45.064072   98.098976
H   39.101765   86.669151   86.917053
H   81.997818   37.169666    9.178219
H    7.261329   76.080215   14.555733
H    7.302420   54.666016   21.336876
H   77.038017   63.338448   40.467140
H   21.605906   13.819436    5.492262
H   97.266441   74.098854   21.597904
H   75.687897   56.992214   65.711426
