100
TIME:    9.387, STEP:  9387
H   82.517731   61.188942   90.551956
H   41.229599   13.530983   69.986504
H   41.124783   49.242012   13.151045
H   83.052185   45.906670   25.628717
H   11.083639   25.166428   11.186169
H   82.453491   91.038460    8.371585
H   60.995777   95.192451   24.528805
H   82.086609    0.697475   46.311050
H   22.877495   83.770111    9.208639
H   18.366083   51.168415   75.259743
H   27.099152   43.947281   35.544014
H   97.563835   94.212578   24.751846
H   45.171875   93.806313   92.253479
H   90.293793   76.142525   71.595726
H   94.620491   31.539711   99.480980
H   24.092525   90.707504   53.837952
H   69.260292    2.848830   27.923994
H    1.802282   38.067390   74.125565
H   91.473312   72.150803   57.903759
H   39.612759    6.470469   55.443199
H    7.238541   21.711966    2.464552
H   62.321178   56.545364   19.888489
H   60.412224   18.284796   63.777435
H   46.870525   49.123993    9.913511
H   93.852158   41.724846    5.862255
H    3.345006   49.374741    7.523095
H   52.628059   52.271664   86.218613
H   40.493797   94.593140   77.057793
H   15.282603    0.754399   13.443691
H   60.932167   58.511246   29.627747
H   85.493340   63.805195   66.709534
H   58.458210   93.160049   30.262444
H   31.564888   81.685043   43.452049
H   74.725037   13.460075   76.292290
H   47.339317   48.942360   96.164749
H   88.633606   20.662817   89.915627
H   80.134094   60.762947   48.124165
H   76.008797   87.167076   84.855705
H   48.844875   76.890770   34.641998
H   79.042542   33.403625   76.584915
H   93.716980   78.272263   63.498135
H    9.128674   78.414291   59.182446
H   92.071686   19.798744   79.505150
H   79.957314   70.209816   98.545479
H   42.403038   61.542011   59.384800
H   56.958260   41.953472   21.297060
H   15.080901   35.336491   15.576456
H   56.760555   92.053055   49.391529
H   39.420692   55.018078   70.024506
H   22.816641   73.614403   27.193474
H   43.549778   63.442528   51.319489
H   61.337337   92.694977   57.837990
H    3.577700   76.437744   57.691521
H   59.306389   54.049728   46.038094
H   93.387581   81.236923   80.179886
H    5.287256    2.659511   73.071152
H   91.347382   18.688835   48.769310
H   27.080271   90.400505   71.767357
H   30.611668   35.403984   90.845314
H   39.573284   49.304920   96.621986
H   51.842373   42.031925   82.515297
H   65.754936   40.569199   70.624702
H   11.343669   66.730980   89.775696
H   87.628479   92.897964   72.284576
H    4.908251   11.118542   69.739037
H   24.690922   75.618065    1.217096
H   34.432358   72.893341   20.266663
H   31.941589   54.390205   14.955490
H   24.748446   75.296387   71.497528
H   20.670074   20.129702   81.933945
H   23.945545   56.707607   49.552406
H    0.271121   39.915428   44.108791
H   94.942001   53.989727   21.066013
H   23.565815   55.315845   45.409554
H   14.652215   42.137096   13.030155
H   47.573776    9.190997   64.301926
H   19.322655   13.331104   57.225166
H   72.990364   36.935066   32.859001
H   11.655190   25.946140   22.416170
H   39.177605   97.664345   12.222733
H   94.581688   26.395182   41.031624
H   45.688530    5.351937    1.687886
H   11.621698   64.102089   23.913311
H   95.959999   15.425009    6.060585
H   95.262634   61.705528   37.789200
H   35.249729   53.855537   93.644852
H   94.091347   20.840797   71.151543
H    6.997320   53.919289   98.250748
H   50.492191   71.519203   51.417244
H   36.401867   23.069206   59.777100
H    8.177696   80.300446   31.698387
H   72.841843    1.471950   12.387994
H   87.178391    9.170515   44.915703
H   53.788857   82.617966   60.812130
H   94.293945    8.898701   31.787794
H   69.249298   25.049379   82.598038
H   17.506550    6.379465   97.332764
H   20.158228   50.928303   90.432884
H   61.537987   77.337532   58.778858
H   22.274551   37.748974   93.460098
