100
TIME:    6.078, STEP:  6078
H    6.292353   64.638603   93.581436
H   32.614693   34.221920   61.344196
H   84.238861   11.179820   51.998463
H   82.496780   82.236237    7.006316
H   40.730957   59.935928    0.906602
H   33.767361   94.623344   80.671349
H   34.422527   71.754219   65.760597
H   42.167480   14.426703   50.132687
H    4.219093    1.918386   17.498102
H    8.748682    3.654717   45.696018
H   34.894272   10.804008   54.285187
H   23.860191   28.349155   60.290276
H   56.217087   94.041222   21.080986
H   54.134438   86.341774   19.778225
H   54.428810   27.115826   58.609951
H   57.140839   80.124855   28.514214
H   35.350594   83.983131   26.692663
H   31.042150   99.083771   88.830605
H   39.933453   33.333092   83.574615
H   28.765404   76.738319   30.151087
H    3.599575   51.133839   92.276360
H   45.084122   52.152618    1.680448
H    4.592585   45.190239   58.451889
H   54.324757    9.538790   55.669048
H   12.200549    4.143181   81.427284
H   18.839369   46.979279   18.869980
H   37.966080   89.821609   20.563185
H   19.698071   40.140190   67.681564
H   43.331383    0.536030   69.861908
H   34.049885   40.409416   66.572159
H   55.264458   67.080681   28.506920
H   49.525822   84.583008   36.593132
H   98.482658   23.786692   45.351196
H   34.912361   16.710167   15.694830
H   29.689327   99.468910   94.836182
H    0.988130   61.483833    0.316998
H   62.757370   81.945435   87.388039
H   12.778515   47.724514   51.348270
H   88.517639   48.986809   55.308815
H   90.713806   43.181461   16.238424
H   19.863304   64.731300   85.540749
H   87.993164   65.438019   90.252312
H   63.594212   99.947906   40.494324
H   91.243271   14.661886   75.009972
H   29.434605   92.085861   76.221054
H   99.669762   78.845383    7.853743
H   89.219040   55.380508   83.808159
H   56.564014   57.971405   44.650105
H   42.694901   29.069931    2.019024
H   53.351818   23.242399   58.559601
H   43.084248   82.851624   17.498810
H    0.512635   99.746063   75.053200
H   34.948368   57.251038   49.868832
H   35.938835    8.032449    0.022667
H   56.855675   91.251633   52.045490
H    1.165901    6.140257   85.717331
H   81.570366   14.168817   34.055916
H   73.475250    2.895123   57.000351
H   69.634827   95.578972   44.873894
H   57.932297   94.962723   90.737816
H   43.105885   95.917374   40.506870
H   83.197823   71.368912   20.343132
H   86.696037   92.530922   16.683746
H   60.406204   74.872559   62.125263
H   73.570374   75.405075   61.586750
H   27.964905   40.117607    5.562299
H   99.918686   58.492458   60.508194
H   60.516731   65.144630   56.766148
H   59.830517   13.060005   79.031555
H   53.522705   53.848976   88.934601
H   29.029388   81.853745   89.238594
H   72.807510   49.808044    1.624072
H   10.694035   17.664169    5.906044
H   96.410789   64.741051   42.018944
H   55.214642   37.306164   62.151749
H   69.348396   97.115166   86.957092
H   18.797604   99.744972   98.540413
H   17.535824   53.295677   50.105934
H   52.973850   35.665722   85.494377
H    1.454678   77.922035   97.296135
H   29.809305   92.161362   43.256474
H   97.383591   83.887482   78.516167
H    2.320887    8.764411    8.780922
H   68.305229   32.267113    8.286265
H   56.381187   68.703865   58.558441
H   11.403645   32.308449   63.857971
H   73.090599   61.432671   13.366003
H   53.779961   18.705603   32.558380
H   81.818466   55.758720   78.480598
H   28.961554   59.212414   41.490707
H   72.759453    1.626885   61.818035
H   28.009348   52.602829   49.334846
H   75.065033    9.888516   89.025650
H   34.682804   81.918404   36.629150
H   51.507271    5.298670   55.751804
H   95.939438   55.717804   53.512375
H   80.159447   16.484400   87.637787
H   26.545382   87.197952   56.863945
H   19.170959   63.050167   35.941147
H   16.739771   22.663929   12.227038
