100
TIME:    8.703, STEP:  8703
H   28.773369   23.914637   91.178177
H   60.120590   76.467590   26.856586
H   29.367487    0.033173   21.180180
H   82.937378   74.086601   63.123238
H   17.212774   70.341080   29.730469
H   93.057495   91.779488   40.633240
H   96.846474   49.006981   71.039101
H   35.847656   41.521648    9.112594
H   39.691521   49.534744   52.265148
H   37.050240   41.347187   48.478371
H   90.723175   16.426357    1.432821
H   23.671532   59.926998   73.440117
H   88.788147   35.205994   60.226273
H   24.160646   78.250801   19.541889
H   86.312630   92.637978   32.373459
H   51.594803   50.532799   10.615625
H   24.263649   57.605389   65.656776
H   87.170212   71.351021   97.838455
H   80.817123   43.455723   21.869976
H   58.039303   20.996180    8.873255
H   47.828362   89.805878   21.030260
H   96.745430   55.637344   78.137451
H   69.544609   23.845114   83.346832
H   10.423349   40.941376   60.714687
H   18.315372   95.968140    0.813183
H    6.571413   69.539047   71.891739
H   11.609148   80.704239   72.650497
H   98.208344   62.666325   54.449020
H    0.408814   38.695950   45.776054
H   34.703957   75.440079   75.252258
H   58.575237    2.471077   20.825417
H   15.269878   12.058706   93.583794
H   83.384659   31.728951   81.831924
H   45.824951   76.144714    5.108495
H   64.362083    0.730808   54.551197
H   29.174078   67.088608   92.065651
H   14.530282   85.811775   94.227806
H    4.282101   99.681053   36.587486
H   77.716393   91.794823    0.927426
H   43.467972   97.437187   22.768133
H   40.462677   54.801468   47.383389
H   66.772446   75.731979   24.264843
H   86.185211   15.694487   30.099918
H   23.628506   58.726707   31.667629
H    1.735454   88.522163    0.849951
H   65.783806   28.907825   18.518206
H    9.733237   98.136238    9.007662
H   56.718807   85.008072    7.069721
H   19.428596   11.668343   97.306854
H    8.459846   63.198666   75.019615
H   42.904003   29.425365   45.171097
H   28.095148   56.165813    2.738119
H   89.392876   72.471680   97.415512
H   75.148224   65.211548   15.855651
H   47.849342   21.293917   74.366470
H    4.435335    3.379012   96.356125
H   47.983528   38.425224   83.715111
H   78.012634   54.996391   89.385033
H   76.664162    6.500948   43.356636
H   84.710533   96.728882   16.076561
H    8.692179   73.840332   35.841511
H   90.031425   46.935776    1.570632
H   64.908676   13.405681   36.679626
H   40.659336   89.171951   90.852020
H   77.761078   65.750916    6.041072
H   66.709877    9.621484   60.773640
H   89.310165   49.246326   87.242477
H   79.189941   15.271173   82.256332
H   90.657867   24.444252   14.394985
H    6.778354   85.773514   83.384689
H   45.669216    3.247312   57.755898
H   56.595581   62.626366   93.972641
H   39.539703   87.824974   38.605412
H   38.621204   98.607521   86.051277
H   81.703720   41.129925   61.168949
H   31.401628   65.354973   10.328361
H   57.201004   72.534302   45.092140
H   40.858562   81.657661   95.081421
H   78.853172   27.955265   14.781704
H   72.722160   34.926292   71.150017
H   81.191002   19.318888    0.149371
H   94.362625    0.911641   58.910126
H   68.359474   52.663120   58.773670
H   48.901184   56.893898   68.531883
H   28.567139    4.496555    4.095446
H   50.993961   28.728771   46.146011
H   48.408543   70.573158   38.535881
H   95.997215    8.651207    5.341280
H   36.297855    9.603497   57.011482
H   96.876297   51.212608   35.328400
H   80.185295   43.366779   17.253563
H   22.232767   50.027969   99.356819
H   43.332508   88.649071   92.020935
H   88.376663   41.173817   13.628380
H    6.120118   70.168655   16.072264
H   12.753753   52.059692   17.927910
H   71.799187   67.126076   36.671455
H   21.478510   17.085144    4.167196
H   94.122337   74.383858   16.069538
H   79.787720   55.298809   59.353359
