100
TIME:    1.210, STEP:  1210
H   35.494545   11.058125   98.038223
H   67.611885   70.350700   54.326656
H    0.554100   60.956219    9.132484
H   81.679703   82.797569   73.840080
H   84.333191   69.744362   32.896355
H    9.253174   99.897209   98.575554
H   89.554420   43.043140   85.076347
H   24.782684   93.282761   97.095268
H   23.883888   69.956802   23.921511
H   41.773140   33.757164   55.074089
H   87.703781   14.929238   23.196482
H    9.656612   84.341866    6.800279
H   66.292908   88.500572    4.865184
H   95.169853    1.346610   49.322346
H   95.218269   61.942471   92.608383
H   52.873016    5.900455   32.600082
H   26.784573   62.016220   83.523170
H   27.001404   35.858490   57.597946
H   64.105980   29.114275   27.110170
H   59.916550   80.118515   98.715111
H   92.473526   35.758240   24.403137
H   78.370476   45.696999   16.225460
H   69.588783   84.781364   97.729691
H    6.619447   51.193790   17.208801
H   86.307854   90.211433   45.490021
H   41.110813   91.555313   75.759018
H   57.739952   92.178543   23.977331
H   30.445045   12.918281    6.768292
H   37.481369   58.872562   99.975792
H   47.389660   60.892441   79.580315
H   63.699711   30.551237   13.663170
H   42.157230   19.082405   87.248329
H   55.589375   79.953117    6.803311
H   29.227287   62.833443   20.775789
H   50.695381   67.453407   98.410248
H   77.759491   79.535843   16.480894
H   95.854027   60.223488    3.808649
H   13.980558   36.807720    7.828528
H   96.322556   54.678062   26.153984
H   49.224564   98.906593   33.234089
H   52.550278   97.700996   70.851608
H   22.873283   66.165169   59.647938
H   21.663275   70.755951   88.872841
H    2.093205   33.049294   99.041756
H   51.696419   84.150101   59.652885
H   62.476818   85.995674   88.084999
H   48.856556   91.012955   37.962593
H   56.304035    7.841501   43.445858
H    0.402124   32.236984   96.205917
H   51.267361   49.166370   99.036827
H   43.452305   52.826012   66.174911
H   63.936577   51.460545   94.626877
H   33.979446   29.024719   32.594421
H   48.670269   87.462776   85.211014
H   44.432312   64.581009   10.673803
H   95.080215   11.260294   51.435547
H   72.959534   54.633003   71.068489
H   35.959167   62.618156   82.388260
H   85.707130   89.893524   18.590622
H   79.170746   20.792189   29.194298
H   36.028881   22.301506   20.055054
H   55.965881   16.682846   40.606651
H   56.307381   24.640800   50.547462
H   26.127401   48.376587   94.287514
H   80.349876   64.204582    8.245767
H   27.012947   82.120430   17.729994
H   90.487656   90.195770   25.481613
H   96.782646   86.737900   24.047598
H   17.207611   62.843445   84.343452
H   54.896797    9.001999   99.185211
H   83.608864   13.072401   47.635380
H   74.196426   11.367935   45.212479
H   28.097931   58.453197   30.722446
H    3.558961   72.809418   31.294701
H   20.511246   30.365385   93.123711
H   54.266262   85.122581   14.512368
H   76.815636   21.672022   12.444565
H   88.828323   71.602882   81.264145
H   19.550554   49.957859   31.180389
H   40.184921   43.055267   16.678467
H   34.560711   41.799664   52.307247
H   32.110119   52.129776   85.597733
H   94.357780   27.452394   45.146336
H   33.407139   15.702859   52.909889
H   93.411987   73.198761   30.456429
H   23.442440   53.501431   25.809486
H   47.967888   15.376076   81.240509
H   75.433777    8.419104   83.164406
H   80.793159   26.800978   18.300247
H   59.357803   59.494507   67.470192
H   73.540718   38.768200   59.014721
H   67.814705   86.509911   56.576424
H   62.919823   63.884293   12.523617
H   64.179878   86.628349    8.403161
H   35.672916   41.345543   43.890434
H   93.862595   47.949089    4.950771
H   66.558243   37.119732   67.600861
H   11.307857   26.540100   36.676468
H   51.070366   42.066128   43.694729
H   14.386520   47.624004   81.145454
