100
TIME:    0.262, STEP:   262
H   99.604897   97.994667   98.906143
H   93.982185   18.949959   94.527435
H   84.265961   92.753471   20.263557
H   81.520584   21.855986   25.801802
H   92.824341   93.757980   58.601250
H   23.953568    0.928496    4.691816
H   39.239010   79.029533   10.941392
H   99.293610   11.268873   84.138161
H   47.187538   61.103165   83.595375
H   67.680550   20.148438   17.948816
H   75.884430   76.784714   14.512650
H   45.841640   36.823250   74.279716
H   26.596912   45.856094   99.088676
H   42.109241    4.269461   77.178810
H   83.689400   46.619453   38.178310
H   90.989166   88.820808   11.291401
H    3.002066   99.323586   97.209557
H    6.743477   81.959503   90.463181
H   49.344055   89.343964   77.165192
H   85.557289    0.038523   34.062187
H   48.729095   30.134483   50.130798
H   87.470009   44.445747   96.946297
H   82.245949   92.491386   24.854439
H   94.698868   39.824039   87.616379
H   20.212633   65.395821   38.493118
H   45.457050   19.803329   64.615166
H   39.486195   31.585598    5.165303
H   10.434441   68.668457   75.435745
H   16.868271   72.862724   44.786957
H   11.040118   84.355209    4.217224
H   26.408083   45.537270   88.679497
H   82.300262   45.271889   75.009438
H   88.812683   49.312813   21.399984
H   89.172066   49.711914   60.713554
H   74.259407   39.115067   40.682030
H   95.334648    5.067003   19.742826
H    4.928602   94.940285   29.109753
H   53.160004   54.158886   40.929592
H   38.941868   74.915062   17.014847
H   38.516018   87.655647   58.648643
H   17.337284   65.168465   48.512119
H    8.074112   23.615763   15.109218
H   13.498149   65.071075   20.397953
H   62.628922   17.162504    6.348907
H   33.929146   21.554630   78.527405
H   74.605278   68.129448   84.345726
H   38.846546   39.874592   29.862005
H   56.253407   98.080154   84.789032
H   72.686638   10.750957   34.022461
H   31.384764   34.737202   65.339005
H   43.524632   44.349419   56.179371
H   17.865602   39.427269   56.863258
H   14.313984   23.527893   87.653603
H   70.619232    2.927256   43.377277
H   19.901375   81.473419    2.629348
H   93.894058   12.256672   83.707703
H   12.862143   81.986946   80.905769
H    6.550236   52.144035    6.806253
H   10.940964   49.839020   91.369553
H   41.728851   47.926659   56.157677
H   76.227737   66.384995   93.968597
H   89.612244   25.506699   83.500305
H   92.004005   89.286781   15.583941
H   61.031540   43.219696   20.026968
H   42.721458   39.918705   19.960394
H   85.250374   29.248341   61.677349
H   66.547874   57.418781   79.711411
H   62.267647   32.521835   78.727715
H   69.961693   30.960670   43.800838
H   35.694069   61.322983    1.179818
H   13.712645   77.577965   59.005131
H   52.363346   42.830299   75.804695
H   89.908524    5.348118   55.031437
H   24.424133   32.799541   87.637169
H   74.802902   29.016493   21.259396
H   31.852232   24.363928   78.299820
H   90.742798    3.835716   95.668884
H   44.289566   33.588970   28.909260
H   74.111992   52.733761   20.609848
H   86.676498   94.684975   98.349731
H   16.008923   31.992167   95.648102
H   60.982121   45.938614   64.872498
H   34.373623   11.630439   54.854034
H   68.194061   34.581272   39.499367
H   39.572861   32.495667   22.354382
H   45.264011   18.676905   59.977535
H   84.653099   84.303383   36.036343
H   60.172852   84.317757   93.015297
H   61.120308   79.584618   26.057281
H   43.171303   98.506668   33.577923
H   34.744694   87.578735   38.994701
H   97.671974   15.211142   38.516457
H    2.094865   35.481613   39.184074
H   72.551674   29.124449   44.483646
H   52.062138   26.261135   22.107288
H   15.561752   85.385368   53.916328
H   41.805748   82.716118   22.121132
H    7.827181   18.468445   51.843369
H   96.231133   37.979671   23.105534
H   55.512585   71.974022   72.451645
