100
TIME:    5.875, STEP:  5875
H   20.020124   83.254784   93.767288
H   38.221230   23.221029   48.543636
H   80.747940   96.575516   54.382015
H   82.462708   90.599579   18.133747
H   42.549210   43.664581    6.410488
H   36.916004   94.843269   60.568089
H   45.061008   58.046955   49.885731
H   58.122879   96.864700   68.771706
H    9.209221   21.436218   30.276205
H   14.294043    0.739722   37.747746
H   53.776840    2.636087   73.839149
H   31.608673   18.173756   74.740273
H   69.170975    6.317158   41.252129
H   64.185936   86.967476    4.329274
H   51.960075   45.248581   68.368042
H   65.302841   97.879921   45.364960
H   51.674599   70.555321    8.212774
H   26.700956    8.961086   95.868202
H   36.772419   24.816423   72.878830
H   34.234100   81.050087   16.329889
H   15.645882   71.343140   97.786873
H   25.622314   51.883133   18.967728
H    7.303121   46.841225   64.259766
H   73.186440    7.110323   70.745605
H   19.460598   20.242615   79.928078
H   19.764757   52.980751   37.959068
H   55.471794   98.259293   16.534842
H   36.826443   30.664833   60.971603
H   38.917397   82.118103   79.458069
H   26.266354   45.433617   50.434006
H   47.274368   48.877758   44.567635
H   36.708225   90.192642   55.385872
H   84.184441   38.638939   27.063353
H   26.334778   35.313957   24.246347
H   34.735565   14.814486   82.474594
H   83.341507   45.584190    0.955405
H   43.287819   89.379517   71.392372
H   21.168789   51.440006   37.023724
H   97.085419   53.410088   74.981255
H    9.834463   62.186382    0.266759
H   33.736481   57.766335   80.758156
H    5.100945   64.641953   79.887962
H   61.845654   98.730576   25.831821
H    4.206037   11.254599   55.161659
H   47.042652    0.096068   58.850079
H    2.289477   74.973465    7.029025
H   87.633102   44.340897   81.859810
H   56.553173   55.880569   32.089603
H   36.761574   45.881798   10.117116
H   49.094257   20.152609   72.758102
H   43.098186    2.449805   15.359073
H   90.647026   18.583015   88.378792
H   30.737270   56.073975   61.659595
H   40.639343   11.344874   91.064598
H   73.018608   73.462494   50.318615
H    0.913056    6.353793   92.627930
H   68.700111   20.026375   14.748960
H   88.591217   22.066484   62.228989
H   53.624680   87.001900   60.457588
H   71.328430   79.360443   96.511620
H   30.300575    5.357996   56.333721
H   90.402687   73.258408   29.528870
H   72.915108    6.383282   30.604065
H   46.465752   73.766739   67.636307
H   65.513687   91.617569   42.682499
H   40.435326   50.209373   93.559181
H   16.206219   51.474995   50.707596
H   74.539268   53.535069   47.061573
H   49.712421   27.646294   91.762421
H   49.410728   43.637955   89.362061
H   35.475716   95.665649   91.673256
H   89.546585   56.545181   86.762009
H   23.930573   27.704826   11.111450
H    0.880246   77.589622   54.080742
H   45.427982   37.016544   46.763199
H   64.550316   84.105522    0.617167
H    0.366435   17.339746   94.950371
H    7.998515   66.569862   38.894409
H   43.239849   36.261997   83.230080
H   11.409660   88.980232   14.784554
H   25.836718   90.061234   31.123487
H   82.146820   82.571030   95.496849
H   89.481361    5.369751   89.448669
H   54.339516   14.895403   26.826717
H   66.265419   81.400658   78.237076
H   16.076275   24.851879   49.761093
H   59.532692   76.192421    3.686126
H   50.515160   34.949986   34.663155
H   77.605820   67.061623   80.140877
H   46.910084   67.564255   34.234734
H   64.451866   90.664841   57.531048
H   12.989405   37.335083   45.467575
H   62.052292    3.797219   73.327347
H   15.063923   69.602608   22.941149
H   55.016777   23.482716   51.086918
H   79.172485   63.734222   63.997528
H   96.272820    4.834977   99.312393
H   26.937220   77.152649   60.938751
H   28.841461   62.175114   52.945061
H    4.130894   27.873207   31.783245
