200
TIME:    0.973, STEP:   973
H   31.994532   60.042324   27.873423
H   34.497009   43.579121   19.654688
H    2.774602    1.221408   81.452385
H   42.550293   85.541237   25.331928
H    7.427669    2.307074   43.119724
H   65.772827   32.920223   43.853725
H   13.979087   54.784042   63.839146
H   19.314747   20.537273   99.054382
H   17.195633   76.517265   29.837721
H   85.058197   64.629654   67.160027
H   37.742416   10.252261   16.125160
H   33.808853   61.587666   47.668568
H   29.164753   11.335775   31.249596
H   69.758743   56.299503   77.587059
H   84.232986   77.587265   41.175060
H    7.935094   95.765305   38.510647
H   18.700762   42.045883   79.856323
H   19.157034   18.405455   30.470791
H   89.413643    3.165115   53.274265
H   92.388260   69.638451    9.055840
H   66.881836   13.348539   92.258751
H   73.710564   76.832024   42.327751
H   73.055252   57.211952   31.548315
H   24.133982   94.742035   89.287628
H   35.106285   42.184105   19.254948
H   18.054323   94.866814   82.747284
H   13.090906   73.504631   78.553528
H   11.333034    0.367270    2.659983
H   41.941139   34.249825   34.046238
H   59.925610   40.401070   73.270203
H   12.404502   82.072945   17.090986
H   18.596695   80.686020   11.650195
H    9.412338   24.757664   82.132500
H   72.166954   64.377625   51.102364
H   12.811881   59.513279   28.642677
H    9.105042   33.211487   87.867516
H    7.302603   58.608253   91.457802
H   96.658180   63.716164   82.211082
H   25.941780   20.153570   60.724934
H   83.053169   36.674213   35.063568
H   80.722412   70.982048   25.854107
H   49.823776   27.735935   18.095591
H   63.504028   70.943375   77.546234
H   35.648300   98.834770   44.963165
H   53.822147   98.658943   70.815712
H   30.744537   94.762466   50.659767
H   93.787247   90.299942   12.249446
H   72.270645   65.539421   21.296524
H   15.428069    0.936192   61.694809
H   35.886497   21.109377   74.702538
H   60.771301   61.218414   98.819695
H   93.118752   48.314312   79.300957
H   71.948326   73.460777   17.504824
H   11.497035   97.652130   92.557907
H   46.172562   60.083244   67.067398
H   95.909721   54.290867    2.650820
H    3.338652   19.519264   41.791752
H   75.416916   75.619270   92.072639
H   12.714130   88.637283   24.854572
H   26.150093   91.873207   53.443977
H   48.045567    1.075414   20.819883
H    3.110492   18.161306   54.685837
H   91.641273   40.390312   60.155128
H   41.886711   66.198105   20.033413
H   83.131447   87.006516   47.903919
H    9.985727   45.038109   46.038864
H   58.795021    7.700172    0.979176
H   93.236641   93.116447    1.783849
H   42.594833   15.758691   52.702103
H   41.017540   54.405701   50.943447
H   58.143604   89.269981   92.888107
H   11.539694    4.555155   39.633850
H    0.758018   38.335354   74.950951
H   31.745842   92.852982   81.912575
H   88.070419   12.737142   33.147087
H   71.841202   93.199081   58.087627
H   92.329422   57.238049   61.776764
H   99.406105   19.317471   22.902641
H   17.108768   62.343254   18.686035
H   57.229492   86.578941   59.499603
H   74.478317   17.713604   90.251175
H   58.867714   55.407265   65.197044
H    8.139927   21.706696   68.833069
H    0.771086   85.828392   17.741369
H   12.805943    7.075078   37.009426
H   45.317448   60.127823   12.524264
H   68.707054    4.311519    3.451812
H   69.235832   91.263535   39.088993
H   88.121872   73.841255   79.810486
H   19.772755   18.903332   46.801342
H   10.516528   41.220535   77.494148
H   78.949615   94.966660   14.361790
H   82.081886    8.595213   74.853600
H   27.158646   68.099289   89.231522
H   43.697601   47.010971   98.468399
H   38.916817   44.097668   94.597458
H   89.248787   88.924965   29.897736
H   99.687027   42.060177   58.221188
H   20.408638   62.435280   55.478893
H   79.949387    9.837573   27.429361
H   42.570156    0.693115    3.455949
H   17.828083   87.746193   61.821335
H   38.373802   10.381632   40.745430
H   57.096901   69.292831   19.271475
H   24.367069   17.839916   48.852211
H   16.442669   90.885750    9.572554
H   87.439056   36.966137   50.160378
H   60.431595   62.417858   90.398354
H   91.424667   30.837116   34.576878
H   27.913305   17.840376    9.124754
H   56.838543   89.697098    1.311570
H   15.425401   81.777771   98.860535
H   44.363064   88.780617   77.991592
H   60.741173    3.594872   56.053028
H   39.389336   12.491285    1.071231
H   84.124725   84.355522   12.002252
H    2.437481   18.764271   92.725204
H   37.052204   63.075500   19.326561
H   46.698902   85.233543   47.313728
H   90.126556   61.304440   76.687836
H   48.204903   26.630367   63.500763
H   86.662849   10.115795   69.748711
H   49.908211   90.907730   45.774475
H   93.278175   40.942173   85.765648
H   54.983192   90.804123   68.570312
H   74.575508   82.408195   11.379126
H   77.166771   52.612442   42.746307
H   59.395416   93.318901   41.193302
H    1.488227   25.950783   68.185928
H    3.273354   20.675100   78.989319
H   78.198059   59.013519   31.423405
H   53.564911   93.321426   26.612926
H   90.044228   18.256409    2.828621
H   64.978554   31.796219   58.728138
H   40.636715   88.116287   22.734184
H   42.835197    0.686113   72.882782
H   70.106255   88.432365   91.828720
H   97.470589   41.334274   71.616623
H   65.472610   54.584404   71.376724
H   43.845001   73.935890   75.090164
H   86.906395   41.512966   38.587906
H   23.494432   63.282345   63.334305
H   31.442116   70.251228   74.660484
H   24.125450   99.994263   90.271004
H   74.756386   45.457146   73.037338
H   72.798294   74.603699   94.739723
H   62.067528   93.567787   42.033478
H   22.637436   46.133636   64.619530
H   84.780853   34.188236   90.657631
H   32.827957   96.677444   62.566475
H   50.385059   73.758514   45.810570
H   64.643082   86.826843   25.181767
H   10.227695    4.430500   77.733864
H   29.286192   17.967794   57.837959
H   42.678757   73.238281   74.013351
H   85.261917   45.346416   76.613655
H   66.983963   82.866707   89.435104
H   56.467403   24.899193   26.896830
H   78.833496   98.972168   75.420715
H   55.461723   27.035717    6.370081
H   61.156094   54.630142   63.926548
H    9.187881   19.257700   29.193867
H   96.771370    2.611256   36.927269
H   38.180412   41.712990   39.839069
H   51.935791   46.960323   17.026688
H   24.542612   41.116417   58.294907
H   62.277908   85.711189   59.992264
H   24.272537   64.282494   78.323227
H    4.033771   25.786472   35.126102
H   59.923573    4.928185   82.149048
H   65.361755   14.350888   35.914558
H   20.840179   38.220921   59.709034
H   51.835560   45.956543   69.799454
H   62.199329   57.006763   91.245598
H   37.369293   89.522491   64.765793
H   23.532799   51.627155   24.007816
H   27.887650   75.820457   17.569218
H    8.226487    9.899902   74.252975
H   56.854958    4.339207   60.562897
H   51.433262   62.317940   96.725250
H   68.035332   11.457355   24.677225
H   34.012241   31.000820   96.375542
H   31.884003   89.392616   20.589439
H   67.443382   26.576630    4.156476
H   95.001991   56.541893   75.376968
H   14.605342   42.408905   87.622780
H   56.875458   91.969421   15.506699
H   55.206047   98.273262   51.175488
H   85.390266   64.441750   74.920746
H   62.942928   54.285969   74.963943
H   82.835243    6.773160   74.067024
H   41.643940    4.849339   15.288019
H   20.382160   34.962597   74.598999
H   22.298153   92.784691   48.085464
H   59.739758   21.515394   19.418566
H   77.117691   12.182084   19.523916
H   14.333611    5.547003   28.207319
H    7.606570   82.838120   26.294605
H    2.138621   13.662888   45.234734
H    0.362570   10.158862   87.565132
