100
TIME:    7.298, STEP:  7298
H   23.788137   52.759193   92.464493
H   98.924454    0.330583   38.267467
H    5.216751   98.951851   37.673664
H   82.701553   31.973782   40.134617
H   29.802591   57.724224   67.826538
H   14.844621   93.301628    1.491168
H   70.480637   54.134563   61.166256
H   46.277885   19.972042   38.115898
H   74.229103   84.620377   40.703876
H   75.425331   21.173464   93.463966
H   21.412842   59.893421   36.769333
H   77.297531   89.501801   73.449562
H   78.380440   20.247227   99.851830
H   93.728294   82.581398   12.620510
H   69.247505   18.139488   99.942902
H    8.086140   73.419189   27.243433
H   37.245430   64.675354   37.754086
H   57.132084   39.718231   46.539528
H   58.930798   84.513290   47.847889
H   95.898178   50.829967   13.214334
H   31.203049   29.678368   59.160351
H   62.046707   53.772186   97.786194
H   88.303383   35.268059   23.546282
H   40.968559   24.133516   65.061935
H   68.565987    7.391418   90.437294
H   13.196621   10.956985    4.107968
H   32.763905   39.107811   44.772930
H   16.757961   97.085686    8.004603
H   69.858788   11.223846   12.191999
H   80.831192   10.214268   63.558617
H    3.276547   76.480927   31.984474
H   26.557308   50.873562   23.651619
H   84.418465   34.525444   55.258430
H   86.459297    4.904603   64.298096
H   99.328438    7.108997   69.069077
H    7.040571   57.039581   96.482002
H   79.771805   37.267700   83.519257
H   62.350563   25.394955   37.440681
H   37.021671   22.405237   37.081558
H   75.802864   28.968733   12.225553
H   36.484482    6.596737   14.282333
H   85.178185   70.222260   52.534939
H   74.093842    7.266438   28.616077
H   13.342445   35.139183   94.295525
H   23.608707   43.949482   80.619453
H   83.920860    2.114689   12.810179
H   98.750290   21.728352   95.517448
H   56.633053   70.537018   20.136395
H   78.357063   28.029720   53.355217
H   78.962646   41.813663   73.256844
H   43.000477   65.068741   30.357620
H   59.811474   86.538589   94.968353
H   60.256443   64.325012   79.012917
H    7.689476   88.129410   53.856583
H   59.717392   98.166252   62.423756
H    2.685409    4.856936   44.185654
H   58.912083   78.965614   50.088020
H   82.631760   87.681099   25.576059
H   65.853325   47.133694   51.217873
H   77.425529   88.736389   56.038109
H   20.064016   39.180725   45.385933
H   39.897652   60.013321   65.144623
H   69.522865    9.280328   33.024689
H   44.180592   81.518372   28.998585
H   21.992172   77.965698   75.199821
H   53.019714   79.468193   77.698563
H    2.035851    0.674376   19.409754
H   76.242912   34.918388   15.089202
H   20.632767   25.398590    2.513854
H   78.243355   15.205027   86.364655
H   90.287346   98.845795   74.606636
H   72.294212    9.277276   90.986946
H   31.148462   57.322392   74.629944
H   69.548302   87.528931   69.531250
H   14.023488   39.061100   54.640934
H   98.184151   75.307030    4.867193
H   29.597271   94.139595   20.172312
H   74.853638   73.522865   17.480120
H   11.479829   32.082195   99.102470
H   41.623825   11.462626   92.192055
H   53.685280    4.783517   16.174377
H   88.932777   91.799301   76.453041
H   79.490410   29.166418   24.967621
H   52.239498   36.665157   96.858238
H   96.977707   92.387901   40.293053
H   83.327682   77.123077   48.578537
H   54.571705   72.728416   71.540138
H   73.400932   21.080290   19.908997
H    7.136832   87.831627   68.502571
H   21.097246    9.015118   85.102539
H   22.686970   67.501167   87.582199
H   18.276995   44.358414   72.580009
H   53.269321   46.496334   83.370125
H   52.589348   55.934044   18.891687
H   30.415306   96.018600   83.787079
H   96.706436    7.542279   90.497566
H   83.321617   86.497101   17.474163
H   24.190493   47.563747   32.374962
H   61.053154   68.316734   33.753429
H   92.518578   91.355942   94.700378
