100
TIME:    5.005, STEP:  5005
H   78.854897   63.037331   94.563797
H   62.249245   76.078140   93.686707
H   65.786850   33.983200   64.596855
H   82.316681   26.444912   65.823494
H   50.341721   73.930328   29.997780
H   50.410191   95.785805   74.408653
H   90.658379   99.298218   81.850525
H   26.503166   21.598362   48.651974
H   30.595482    5.083004   85.040169
H   38.065987   88.247749    3.678421
H   34.702118   67.629608   57.641834
H   64.816292   74.565498   36.667198
H   24.687607   58.928185   27.699951
H    7.263480   89.649055   38.123116
H   41.379784   22.960562   10.185839
H    0.282881   73.973404   17.582283
H   21.634926   13.013352   29.013243
H    8.096543   51.290699   26.026487
H   23.222980   88.318710   27.045099
H   57.671371   99.529091   57.096291
H   67.272926   57.954582   21.400333
H   42.214569   50.728195   93.056320
H   18.920067   53.916878   89.150665
H   54.021946   96.702606   35.358047
H   50.576202   89.237762   73.502907
H   23.730707   78.697556   19.770815
H   30.491766   34.424763   99.271950
H   10.234845   90.056198   32.210999
H   20.000313    3.185033   20.582962
H   92.907776   66.965904   81.271950
H   13.032823   70.862854   13.399269
H   81.776039   14.230704   35.926109
H   22.902405    2.293170   48.686882
H   89.574234   15.044240   60.898323
H   56.360779   80.580399   29.497810
H    7.714063   77.441597    3.691569
H   59.842827   21.242027    2.839832
H   57.124523   67.362144   75.629845
H   33.810001   72.366997   59.290512
H   91.778450   43.632133   31.816977
H   93.195862   27.917166   60.261333
H   81.799583   36.484749   37.937588
H   54.351833   93.513443   62.989067
H   59.756184   96.651550   70.097824
H   22.509375   34.419693   84.401634
H   13.515993   58.379536    3.493702
H   80.836227   97.026146   73.509743
H   56.506710   46.919846   78.258980
H   11.333031   17.936039   44.823174
H   30.847569    6.910650   33.607788
H   43.162769   86.442780    6.187605
H   48.365685   99.312363   45.493668
H   12.690013   51.029419   12.185938
H   60.784378   25.542099   52.672874
H   42.289764   97.218269   42.917721
H   99.828598    7.268949   22.244797
H   13.547877   45.129677   32.004692
H   53.372696    4.226898   84.637436
H   85.010445   50.242844   27.246086
H   28.740574   12.488416   21.256477
H   75.419769   45.815754   24.166992
H   21.278551   81.356247   68.895493
H   13.849366   65.750900   90.262573
H   86.724098   69.027512   91.252792
H   30.978781   61.104092   61.662968
H   93.881065   93.459801   42.117989
H   86.007690   21.398979    8.703190
H   34.636299    3.778006    5.470542
H    6.349496   90.158958   46.328445
H   31.787931   99.878418   91.194031
H   63.101295   54.859970    2.108063
H   61.280983   85.418625   23.064056
H   80.655746   70.737251   33.420334
H   20.029713   32.652813    5.773879
H    3.483306   35.775318   80.810760
H   43.980652   28.345884   59.155354
H   21.376162   92.746040   79.564476
H   67.124329   23.455322   90.846733
H    1.522231   38.817463   73.525948
H   54.070557   36.370373   89.736084
H    8.812042   81.060684   79.126244
H   16.856148   76.914017   68.262474
H   34.452316   90.820618    6.594073
H   94.486130   40.448044    6.288191
H    8.626874   35.819397   62.573784
H   36.101833   92.896019   89.345490
H    1.427355   39.448654   62.201248
H   36.518188    4.582539   43.693588
H   59.551620   15.502068   87.256355
H   23.829115    3.354675    3.135179
H   28.847923   43.686970   39.158245
H   48.618214   71.903198   28.893553
H    6.283667   77.697365    6.048908
H   30.980049   16.822504   64.278618
H   70.057518    1.411385   31.094696
H    7.314108   98.090302    8.934225
H   65.328972   54.907314   49.346954
H   25.236952   58.852264   75.943657
H   70.286469   58.424885   25.815681
H   50.089886   50.195980   15.592725
