100
TIME:    6.143, STEP:  6143
H    1.896740   58.677757   93.521927
H   30.819660   37.744373   65.442726
H   85.356644   15.856009   51.235256
H   82.507690   79.558319    3.443327
H   40.148758   65.145966   99.144211
H   32.759174   94.552925   87.108269
H   31.016045   76.143028   70.843681
H   37.058609   20.049870   44.164402
H    2.621242   95.668884   13.406512
H    6.973074    4.588083   48.241032
H   28.848129   13.419317   48.024315
H   21.379150   31.607288   55.663429
H   52.069290   90.110634   14.622246
H   50.915977   86.141426   24.724934
H   55.218880   21.309784   55.484791
H   54.527390   74.439735   23.118458
H   30.123695   88.282677   32.609871
H   32.432186   95.920853   86.577187
H   40.945606   36.060104   86.999374
H   27.014343   75.357704   34.576591
H   99.742401   44.662701   90.511909
H   51.315735   52.238907   96.145111
H    3.724669   44.661598   56.592224
H   48.285061   10.316378   50.841358
H    9.875844   98.988281   81.907326
H   18.543062   45.057625   12.757633
H   32.360802   87.119888   21.853048
H   14.213588   43.174171   69.829849
H   44.744728    6.433260   66.789246
H   36.542332   38.800682   71.739548
H   57.822861   72.909615   23.364326
H   53.629978   82.786819   30.575752
H    3.061150   19.031157   51.206909
H   37.658714   10.753398   12.956659
H   28.073402   94.555428   98.793549
H    6.638353   66.574852    0.112581
H   68.991859   79.565063   92.509804
H   10.092043   46.534824   55.934948
H   85.774261   47.570488   49.009758
H   84.591293   37.096142   21.352503
H   15.421185   66.961906   87.072121
H   82.515335   65.692917   93.570946
H   64.153961    0.337815   45.189110
H   87.092499   15.752890   81.365562
H   23.796349   89.521011   81.783188
H   98.830681   80.085159    8.117815
H   89.726852   58.915359   84.432014
H   56.567486   58.640884   48.671940
H   44.594734   23.686821   99.426132
H   54.715534   24.231874   54.014038
H   43.079784   76.576370   18.183910
H    3.671339   93.714798   70.786385
H   36.296749   57.627930   46.093464
H   34.433746    6.971820    2.890776
H   51.680351   96.947662   52.598431
H    1.246858    6.071883   83.504578
H   85.691383   12.293159   40.237938
H   68.635162   96.756645   55.326157
H   74.761551   98.325325   39.884041
H   53.643166   99.958527   88.889061
H   47.206074   92.894302   35.439159
H   80.890846   70.763901   17.401886
H   91.108650   88.095497   12.226501
H   64.869797   75.226639   60.360317
H   76.150101   70.213882   67.639839
H   23.972080   36.886253    9.405730
H   94.703690   60.739429   63.646317
H   56.026756   68.861977   59.873524
H   63.070301    8.389519   74.955170
H   54.839348   57.118515   88.797729
H   26.965160   77.431213   88.459023
H   67.447708   47.650833    6.383094
H    6.455757   14.449181    4.239288
H   94.979591   60.627384   38.156792
H   58.348301   37.398899   67.079117
H   70.884727    1.280906   82.583160
H   24.699188   94.111427   99.689934
H   20.589642   49.045227   53.695831
H   56.090649   35.474796   86.219398
H   98.267044   74.381233   91.696312
H   31.081316   92.833817   47.141438
H    2.262168   84.309006   73.079002
H    6.432420    9.851323   14.971251
H   72.777351   37.829247    2.349645
H   53.216286   64.638390   52.257401
H    9.907482   34.696259   68.371750
H   77.431801   56.706642   16.465445
H   54.825340   13.504244   31.884438
H   83.167343   52.139565   77.948982
H   23.214693   56.537968   43.814049
H   75.419518    5.136652   63.190716
H   32.818691   57.491516   50.573135
H   79.231674   11.838933   94.052200
H   40.964504   85.861885   41.012009
H   50.383537   99.476273   57.245487
H    1.308179   53.150970   50.155060
H   74.999992   20.214392   83.899612
H   26.419916   90.414429   55.559204
H   16.074493   63.330357   30.496544
H   20.776979   20.995934    5.965278
