100
TIME:    9.280, STEP:  9280
H   89.753815   71.001411   90.649918
H   44.184769    7.732682   63.240131
H   39.285557   41.543877   14.407196
H   83.034225   50.314934   31.493750
H   12.042437   16.589905   14.087255
H   84.112305   91.154381   97.775085
H   66.603630   87.967796   16.161266
H   90.496597   91.440170   56.135765
H   25.507759   94.057693   15.943895
H   21.289007   49.632053   71.070259
H   37.052032   39.641876   45.851189
H    1.647524   88.849190   32.367958
H   51.994888    0.283163    2.887056
H   95.591873   76.472328   63.453442
H   93.320869   41.097481    4.626573
H   28.395073    0.066085   62.719788
H   77.864571   95.771385   18.183363
H   99.513870   43.274040   77.835037
H   89.806335   67.662537   52.266895
H   42.495274    8.742765   48.158134
H   13.588278   32.364059    5.368979
H   52.062984   56.403320   29.000534
H   61.840828   19.154612   66.838730
H   56.812794   47.843964   17.860380
H   97.679184   50.210754    5.072441
H    3.849762   52.529099   17.592310
H   61.855209   56.719929   84.096115
H   49.521759   89.598740   73.521385
H   12.955815   91.046440   18.501358
H   56.829216   61.159470   21.121838
H   81.282631   54.210690   75.175034
H   51.702137   96.116852   40.167976
H   24.027573   89.513794   33.812645
H   70.204117   23.265961   80.800148
H   50.002235   57.043770   89.655212
H   79.332169   12.281808   90.251961
H   69.871002   64.681404   39.692951
H   80.431755   89.124672   77.304512
H   53.361713   79.222252   45.011215
H   89.121140   43.420998   68.166763
H    1.029755   74.600342   60.977261
H   18.146179   77.994690   53.720280
H   91.150848   19.156689   71.775993
H   86.788490   68.413857   88.083199
H   51.684067   65.762993   50.227856
H   58.338699   39.912609   20.862356
H   14.244351   29.516939   14.548882
H   56.754025   90.950989   42.770969
H   36.293274   63.879505   74.292358
H   20.570875   71.984978   34.675014
H   42.953846   73.726891   51.118668
H   56.137218    2.623495   64.861824
H    1.358305   75.817322   63.906265
H   61.783997   55.795891   41.316353
H    1.907025   71.860382   79.270477
H    5.153988    2.772064   76.713684
H   84.563553   21.776253   38.592751
H   35.047546    0.505247   74.523338
H   22.172699   30.882349   99.059380
H   46.633854   41.080242   99.665321
H   45.092014   47.007549   90.856712
H   69.552574   41.565140   75.465630
H    4.079366   74.032372   97.113007
H   80.281372   92.315094   75.189133
H    0.661183   19.664860   59.774723
H   31.263725   80.937370   94.890388
H   43.017044   69.193665   15.100422
H   39.332779   48.270882    9.840271
H   19.415262   82.984726   78.207886
H   18.496964   14.755653   82.160889
H   27.343582   63.988590   50.835701
H    9.082160   43.468163   36.266163
H    1.918516   59.282093   23.809750
H   25.920971   62.087429   51.767250
H    9.498219   41.979542    4.917520
H   45.043922    2.333276   71.502090
H    9.604608   22.592541   55.327164
H   67.963310   43.931145   26.949478
H    6.524286   26.260433   21.221857
H   44.425072    3.493228   21.440819
H   92.486946   25.288218   34.636375
H   37.659775    4.657330   10.639460
H    4.853741   62.312656   13.722875
H   88.598198    6.268677   15.833237
H    0.472549   68.399277   48.161682
H   37.712643   49.924835   86.214478
H   86.945061   28.620567   66.049385
H    5.276567   62.481117   99.359344
H   48.271732   77.476891   52.292366
H   45.862492   27.471756   55.952522
H    3.798619   74.522354   29.438744
H   64.924927   93.424469   10.349580
H   80.319458    5.959829   36.641228
H   44.051491   76.172104   52.669903
H   96.143784   18.483410   29.329370
H   60.411545   29.274374   88.124695
H   25.999397    0.239120    3.486492
H   20.364763   45.634304   92.581505
H   66.635246   76.875481   67.741173
H   15.628674   40.494343    3.767518
