100
TIME:    7.669, STEP:  7669
H   98.699455   18.737072   92.124832
H   88.678024   20.435246   61.661594
H   11.594034   25.642181   33.317516
H   82.763824   16.687637   19.798286
H   26.478163   87.461510   57.766922
H    9.090911   92.899696   38.232796
H   51.036953   79.185654   90.178940
H   17.118019   52.067142    4.051015
H   65.109215   48.950348   17.350266
H   65.292122   26.500475    7.990742
H   86.903336   74.821503    1.032988
H   63.139168    8.097923   47.040947
H   54.723076   97.792053   62.981747
H   75.358315   81.437874   40.854801
H   73.753670   84.999954   82.099396
H   93.168747   40.970276   96.446564
H    7.411699   89.215836   71.527679
H   65.065613   21.665268   33.680542
H   64.708206    0.075416   67.393021
H   85.900833   42.952671   38.473763
H    9.187378   92.743713   49.092243
H   97.614838   54.264694   66.192093
H   83.349998   32.250740   12.930676
H    6.496881   28.571749   37.507072
H   55.296577   77.970428   93.177223
H   11.447369    0.021343   69.196281
H    0.772071   23.685152   52.135075
H   85.453697   14.402686   20.268229
H   77.925728   44.883442   94.655022
H   95.057312    1.031401   93.052483
H   17.878317    9.750134    2.632190
H   49.982571   40.624302   89.306343
H   10.550541    7.382173   88.681038
H    2.134740   70.904640   48.668045
H   90.095329   79.019127   91.639526
H   39.290440   86.097549   95.315834
H   15.356229   23.680407   12.752427
H   47.017715   18.604572   63.620026
H   21.360485   14.322729    1.129640
H   40.859322   94.236923   41.415596
H   11.129980   19.325560   23.022795
H   53.912422   71.677139   71.474968
H   77.286652    9.491922   55.412472
H   89.652405   41.366295   30.569839
H   91.426903   29.312939   12.366951
H   79.131645    9.189784   14.317423
H    1.649729   41.904915   99.078224
H   56.655697   74.358200   43.091793
H   89.203560   97.304268   38.554504
H   86.752197   47.460522   47.316269
H   42.975002   29.251417   34.268784
H   77.841797   52.113003   70.614685
H   67.951134   66.476196   57.467110
H   99.098602   82.077789   70.228226
H   30.178150   30.679119   65.578354
H    3.147489    4.466680   31.555939
H   82.432968   68.260643   85.373100
H   55.006027   52.645103   16.018858
H   95.111290   62.811863   22.736866
H   52.942940   17.252529   45.485985
H   43.467358   21.927967   16.460999
H   26.730141   56.560104   48.357086
H   94.708702   83.964020    7.584106
H   69.657341   83.539352   18.924816
H   36.718330   48.334469    9.749366
H   30.228596   61.024620   99.634979
H   72.270172   13.500298   37.322186
H   50.615517   56.135857   32.825150
H   39.124458   98.740913   79.246857
H   85.778160   33.838276   85.577774
H   78.506783   73.603348   70.157082
H   41.743801   96.958397   18.181162
H    6.957548   38.972225   65.119446
H   61.380375   64.047058   47.487274
H   31.893885   39.607388   82.770493
H    6.954943   99.083275   79.902504
H   63.291706   62.030167   26.751822
H   92.283890   49.264629   37.970150
H   29.269735   30.992451    3.242371
H   23.430004   91.252281   60.229988
H   60.948357    8.621682   38.348557
H   16.772472   94.205231   45.415417
H    2.955612   35.370884   60.300819
H   77.763695   68.412109   62.971516
H   78.913422   69.177757    4.329511
H   74.790878   90.749130   74.341797
H   79.349953   45.753700   89.230797
H   79.367638   91.392944   16.062340
H   14.837182   67.174599   65.468269
H   88.296112   93.751358   98.366287
H   37.869801   87.535484   95.417038
H   45.727238   72.261536   79.650612
H   77.051224   57.628712   12.060122
H   88.445290   78.442223   43.907635
H   23.999966   62.788361   92.312561
H   27.349579   92.892090   71.335045
H   53.873039    7.787904   96.137184
H   23.474375   65.919868   24.926558
H   43.379478   69.918800    2.677319
H   15.563091   81.834122   58.962017
