100
TIME:    7.996, STEP:  7996
H   76.585442   88.749962   91.825455
H   79.646805   38.155895   82.279007
H   17.214846   49.167923   29.478821
H   82.818710    3.214405    1.873906
H   23.548006   13.671910   48.900360
H    4.019582   92.545433   70.617439
H   33.900089    1.264869   15.750782
H   91.416458   80.357262   74.028191
H   57.070930   17.510151   96.766922
H   56.360695   31.195711   20.795364
H   56.486588   87.979141   69.533539
H   50.657623   24.488537   23.764793
H   33.871437   77.998215   30.486761
H   59.166985   80.429970   65.740379
H   77.725410   55.790695   66.372101
H   80.021088   12.369671   69.303009
H   81.116219   10.844810    1.295779
H   72.056076    5.753715   22.345547
H   69.802612   13.794217   84.622192
H   77.089157   36.009609   60.737465
H   89.782753   60.191113   40.218197
H   28.964647   54.698792   38.345001
H   78.984077   29.592402    3.574508
H   76.114777   32.483612   13.220971
H   43.600899   52.038200   95.592201
H    9.905575   90.381393   38.423195
H   72.575668   10.091897   58.624081
H   57.861633   29.665945   31.077002
H   85.035942   74.551743   79.197166
H    7.595812   92.938156   19.047588
H   30.747805   39.072472   76.761009
H   70.629631   31.590588   59.034294
H   33.584126   83.457222   18.139784
H   15.951632   40.936958   34.891693
H   81.957253   54.260612   11.534332
H   67.716324   11.709882   94.287971
H   46.719173   11.704062   38.518764
H   33.503319   12.619871   86.696999
H    7.557063    7.198793   69.440575
H   10.059978   63.625549   67.144287
H   88.781967   30.544729   30.726774
H   26.354729   72.959473   88.170250
H   80.100800   11.453468   79.032448
H   68.770828   46.854881   62.540913
H   63.060974   16.412266   40.349640
H   74.910423   15.425567   15.645910
H    4.205976   59.687935    2.218123
H   56.675655   77.726196   63.324718
H   98.763680   70.220589   25.509754
H   93.617920   52.437672   24.451729
H   42.952549   97.680916   37.716614
H   93.733749   21.769026   49.149323
H   74.732033   68.372253   38.476601
H   91.524353   76.743881   84.658218
H    4.141091   59.336967   68.357574
H    3.554767    4.122707   20.424088
H    3.164552   58.825264   16.473732
H   30.656733   21.763906    7.595748
H   20.901718   76.628349   97.632935
H   31.365311   42.387760   36.185326
H   64.094467    6.721222   90.965248
H   15.124275   53.516434   33.560356
H   16.908581   61.650421   85.160736
H   92.110649   85.320648   10.046199
H   49.698837   22.216749   40.201950
H   10.141617   44.768425   18.970280
H   46.034729   24.805401   53.109356
H   28.027489   74.836967   48.457642
H   55.423065   75.244774   58.738861
H   92.419350   50.261623   84.884216
H   68.123375   51.354614   66.235237
H   14.816525   86.100975   42.149540
H   85.636673   22.797647   56.734585
H   54.182842   43.352589   28.057932
H   47.646118   40.088886    7.563770
H   14.685784   20.041004   57.898956
H   92.989952   33.726524   32.551132
H    7.646169   27.884090   56.030094
H   44.949631   30.031948    6.891657
H    7.394277   73.439323   32.058571
H   67.350044   12.004647   57.892914
H   41.309723   96.325821   18.059166
H   23.639002   40.839512   91.441360
H    0.261897   96.393921   33.106121
H   62.991531   48.722164   72.630516
H   67.266525    2.759444   97.049576
H    1.189545   21.978142    4.823431
H   84.626701   65.227356   12.671890
H   21.624317   48.967461   62.793831
H   59.385830   80.299332   10.055571
H   51.251972    5.193187    2.322763
H   69.921928   96.855392   85.882652
H   98.012634   67.439934   37.347534
H   20.048700   98.280968   65.956779
H   18.345474   33.496773   99.826935
H   54.358414   79.978943   54.445168
H   27.917212   26.552906   77.331291
H   22.843187   82.101219   18.361460
H   27.801872   71.330864   75.289040
H   35.873371   73.441574   27.460026
