100
TIME:    9.171, STEP:  9171
H   97.125153   80.997292   90.749710
H   47.195175    1.825903   56.366924
H   37.411953   33.701851   15.686827
H   83.015930   54.805595   37.468788
H   13.019156    7.853266   17.042496
H   85.802124   91.272469   86.980865
H   72.316750   80.608101    7.637325
H   99.063782   82.009781   66.143944
H   28.187187    4.537692   22.805044
H   24.266565   48.066975   66.802467
H   47.190948   35.255997   56.351021
H    5.808037   83.385551   40.126823
H   58.945435    6.880480   13.719070
H    0.988945   76.808296   55.158192
H   91.996956   50.833900    9.868240
H   32.777969    9.599797   71.767639
H   86.629677   88.561378    8.260664
H   97.182053   48.578011   81.613846
H   88.108200   63.090214   46.524670
H   45.431667   11.057535   40.736900
H   20.056572   43.215660    8.327711
H   41.613049   56.258621   38.282898
H   63.296135   20.040686   69.957245
H   66.940659   46.540009   25.955629
H    1.577648   58.855278    4.267864
H    4.363916   55.742416   27.849730
H   71.254189   61.251339   81.933945
H   58.718468   84.510986   69.918877
H   10.585536   81.157005   23.653561
H   52.649574   63.857193   12.456940
H   76.993217   44.436848   83.798767
H   44.819782   99.128922   50.258659
H   16.349373   97.488876   23.993063
H   65.598694   33.255188   85.392265
H   52.714928   65.296608   83.024002
H   69.856873    3.744143   90.594582
H   59.416443   68.673103   31.104147
H   84.937386   91.118858   69.612175
H   57.962978   81.597313   55.574249
H   99.388123   53.625610   59.590836
H    8.478945   70.859787   58.409267
H   27.332077   77.567245   48.156017
H   90.212799   18.502632   63.902378
H   93.747353   66.584328   77.425362
H   61.138573   70.062386   40.899754
H   59.744942   37.833599   20.419527
H   13.392165   23.588850   13.502100
H   56.747372   89.828323   36.026661
H   33.107399   72.907387   78.639984
H   18.283133   70.325096   42.296665
H   42.871868   84.242378   50.105606
H   50.839901   12.737926   72.016945
H   99.097649   75.185303   70.236435
H   64.308014   57.574692   36.506355
H   10.585987   62.308434   78.344070
H    5.018229    2.886722   80.424301
H   77.652924   24.921379   28.225973
H   43.164001   10.799185   77.330833
H   13.575993   26.276510    7.427347
H   53.826397   32.701832    2.765526
H   38.215481   52.076176   99.354042
H   73.421196   42.579697   80.397041
H   96.679489   81.470238    4.587463
H   72.796936   91.721329   78.147980
H   96.335114   28.370922   49.624165
H   37.959755   86.356102   88.445457
H   51.762192   65.424835    9.837616
H   46.862122   42.037178    4.629440
H   13.982470   90.816772   85.043671
H   16.283234    9.280996   82.392075
H   30.805134   71.404839   52.142982
H   18.057917   47.087303   28.276749
H    9.025522   64.673485   26.604771
H   28.320148   68.986183   58.243782
H    4.247887   41.819042   96.653137
H   42.466782   95.347649   78.836838
H   99.704910   32.027088   53.393684
H   62.842480   51.057991   20.929497
H    1.297524   26.580601   20.005220
H   49.770622    9.431168   30.831291
H   90.353050   24.160563   28.121590
H   29.480820    3.949739   19.758413
H   97.959389   60.489780    3.342008
H   81.098793   96.941261   25.788372
H    5.779846   75.218430   58.728043
H   40.221592   45.920662   78.645218
H   79.665199   36.545753   60.851860
H    3.523664   71.202980    0.489020
H   46.009769   83.545937   53.183846
H   55.499950   31.956596   52.056458
H   99.337761   68.636261   27.136864
H   56.860027   85.226517    8.273065
H   73.332321    2.689152   28.212091
H   33.607010   69.566879   45.183987
H   98.028198   28.247272   26.824995
H   51.408600   33.578491   93.754654
H   34.651115   93.983803    9.755331
H   20.575159   40.241352   94.770287
H   71.827782   76.404793   76.870522
H    8.858377   43.291027   14.267975
