200
TIME:    0.650, STEP:   650
H   22.069586   61.114292   22.350323
H   31.618631   38.863693    6.541767
H    9.544446   87.083786   65.542900
H   31.663021   81.765938   33.778297
H   10.857068   94.120636   47.763687
H   76.280579   41.686951   53.413956
H    9.299392   55.013222   57.587231
H   12.076497    6.590598   10.519217
H    4.078856   81.359604   37.717472
H   96.428452   69.155785   79.900429
H   26.484285    3.352553    5.918053
H   32.473206   52.966331   32.277817
H   21.237118    0.614967   44.487785
H   85.025047   54.936749   62.022579
H   99.827042   75.100792   41.969795
H   17.349667    9.073322   45.478439
H    3.494711   26.920826   95.525734
H   26.826534    2.877060   36.221058
H   78.666855   14.858559   48.519409
H   91.360649   74.074181   21.577091
H   63.005501   97.225098    7.056709
H   80.901375   64.485909   54.774902
H   82.727608   59.560425   39.298485
H   17.292484   91.797203   90.300453
H   21.067200   29.193571   30.780453
H   18.321699   80.532013   93.415215
H    6.835631   67.023537   65.566696
H    3.919819   87.042809    1.810101
H   28.337002   44.067574   35.937584
H   74.521973   31.747717   84.443314
H   12.826204   68.578468   16.696083
H   24.470341   73.115707    3.697529
H   17.216759   17.807737   78.187164
H   82.857063   64.025230   45.456665
H   28.312845   72.859482   31.100195
H   19.668503   40.573769   84.177940
H   98.032196   65.579742   89.032936
H   12.634864   55.360973   96.733170
H   37.896072   31.719120   53.545212
H   86.150787   38.002468   47.680756
H   80.626305   86.070923   15.133168
H   33.746719   34.509438   27.673687
H   69.319656   78.363365   65.552513
H   36.367874   83.147072   33.411785
H   42.785805   88.804230   59.159599
H   35.290100    3.168314   47.146915
H   87.700439    6.125223    5.168234
H   80.134209   65.544350   32.908279
H    2.936498   13.193304   61.461933
H   47.445271   19.651747   88.367050
H   68.454971   65.306679   11.620173
H    5.465277   42.754864   72.356575
H   63.234688   82.695839   13.287037
H   16.304546   90.835892   87.774712
H   59.844467   67.266663   77.513542
H    0.049745   62.249306   92.073822
H    4.260397   18.296974   45.256550
H   71.888046   68.110565   97.903160
H   19.529753   82.397690   17.042759
H   33.620602   93.686928   59.414963
H   49.091660    7.377195   30.257515
H   97.305229   17.396143   52.209221
H   82.742706   33.699753   71.052673
H   34.060112   65.737282   12.821655
H   77.939178   82.191284   34.695301
H   22.656366   32.489922   40.232986
H   70.860207   14.513638   94.305885
H   95.045433   92.382088   95.388847
H   31.106245   11.393809   56.790367
H   42.876850   48.776020   50.960697
H   58.285301   83.683426   84.248291
H   20.617538   13.045020   41.894840
H   90.506485   32.751263   85.766739
H   21.222689   99.952614   72.508827
H   84.137405    7.508524   48.334534
H   63.676994    4.601805   60.198296
H   93.694641   45.213524   66.346169
H   11.369452   13.435816   33.947609
H   14.647663   47.959782   25.857723
H   62.097706   88.380341   74.817657
H   60.769451   23.172632   95.046692
H   44.664753   61.216839   75.182365
H    9.400105   18.163656   78.283638
H   11.303991   75.266426    7.214275
H   24.308037    3.659420   46.163048
H   36.218040   71.429077   19.247932
H   54.230957    3.638458    2.711291
H   71.921913    3.284604   26.906494
H   78.235123   73.055145   78.647339
H   21.390564    4.424740   50.354855
H   24.056103   38.432186   78.930832
H   81.199516   92.132721    7.313923
H   66.736725   12.238056   84.052811
H   41.642742   79.703651   80.362526
H   35.513680   51.380165   85.015816
H   52.293007   36.876053    9.784382
H   84.867271    0.098068   15.986794
H   95.623848   34.809425   52.475483
H   27.727592   65.670898   54.334229
H   74.333260    4.589450   27.350504
H   28.158964   91.762451   88.246132
H    5.817988   82.859497   63.603020
H   31.678312   22.186071   36.232075
H   41.576775   68.696472    6.444205
H   24.795240   22.084663   38.380192
H    3.654777    6.699392   24.695181
H   85.080376   35.187687   54.351120
H   62.335262   50.016296    2.887590
H   83.216103   34.914291   18.958179
H   17.537394   22.343874    7.543910
H   52.588867   92.503929    1.084316
H    2.456733   73.655457   95.181343
H   49.973030   85.032425   85.017296
H   61.835320   10.558254   64.381165
H   50.168159   99.041473   12.396817
H   97.306236   93.803627   97.430557
H   15.717862   14.215920   88.959763
H   38.690960   47.177105   25.783012
H   34.432877   73.106750   63.276196
H   81.602562   54.857845   64.637436
H   44.833748   24.483967   74.084846
H    0.598482   17.767429   60.248367
H   42.121040    4.530437   36.192066
H   98.036728   52.565018   99.910698
H   64.648155   98.800758   79.253029
H   62.743252   73.569855   17.615068
H   85.195442   51.104294   55.220566
H   66.460548   90.785606   38.465328
H   97.513268   37.642628   75.546776
H   87.617706   22.206043   73.486549
H   65.159477   70.546417   19.079754
H   65.962776   90.117844   18.995792
H   91.098946    2.542220    0.425143
H   80.816574   23.514957   54.753231
H   24.680408   93.956665   37.576630
H   51.438049    1.100653   77.641335
H   69.571503   87.609291   75.749199
H   94.715508   51.419399   76.720177
H   57.029938   50.067352   71.453117
H   43.670036   89.426445   84.065125
H   70.915588   51.011589   28.154083
H   38.363632   53.468292   55.804653
H   41.825455   64.307350   85.555130
H   38.926003   11.686392   84.918556
H   59.573864   56.169434   62.475376
H   60.962601   69.039322   10.209824
H   54.428215   94.982292   44.346218
H   31.457146   58.156929   66.472679
H   76.145966   47.674088   93.868607
H   22.531567   93.151039   74.653839
H   61.768867   68.272995   48.248989
H   51.046394   95.764839   35.303856
H   95.222458   16.508007   89.072083
H   20.748028   10.553738   65.820763
H   29.870586   64.706894   68.170509
H   75.673347   44.545521   66.675156
H   63.602947   73.179565   85.610519
H   51.875191   30.081604   19.329597
H   93.616798    0.189476   87.399651
H   59.083004   40.214996   93.975174
H   57.983315   67.752510   72.514626
H   24.353765   20.931572   31.992073
H   82.867821   16.694023   37.061573
H   26.324396   32.224224   53.657600
H   55.028481   36.000374   13.853085
H   18.977619   51.393757   60.060574
H   67.839821   90.935493   56.568127
H   23.990376   49.586700   64.966751
H   99.644020   26.836878   35.888802
H   45.183395    7.365680   85.786346
H   71.532349   10.509669   35.941666
H   31.999121   50.218338   58.717155
H   45.594734   59.836681   78.887772
H   66.177261   64.731209   83.751678
H   52.381775   91.952286   79.953239
H   13.565843   49.875511   23.680098
H   31.205822   65.729172    4.058723
H    5.363760    9.591866   70.122818
H   65.116341   11.848220   64.339539
H   66.797127   58.853142   92.168770
H   73.932388   99.881874   32.186562
H   27.497454   30.606533   84.583893
H   46.757252   89.735153   14.189667
H   60.409660   25.979038   92.273750
H   90.825012   70.551407   76.707687
H    7.843622   39.683395   86.006203
H   45.628418   97.501762    8.349771
H   70.723709   84.591499   39.873001
H   94.744728   63.001751   71.229233
H   57.069283   56.043011   70.883072
H   67.406296   17.459549   76.373604
H   44.291824   96.071320   19.402105
H   13.207486   27.278072   67.198723
H   27.940771   79.893967   41.576031
H   70.824631   35.942158   20.475132
H   76.329117   11.389505   23.949173
H   12.186595   96.739067   17.305281
H   16.993959   89.257607   35.403870
H    6.445867   12.759108   59.680428
H    3.731488   21.102013   92.052612
