100
TIME:    2.100, STEP:  2100
H   75.308014   29.440536   97.223404
H   42.854958   18.603033   10.467413
H   15.851934   24.986134   98.684151
H   81.829086   46.130699   25.054626
H   76.361542   41.081776    8.765570
H   95.452888   98.933006   86.715843
H   42.909084    3.138737   54.675591
H   54.830437   70.277832   15.378439
H    2.005950   84.386887   67.900749
H   17.452814   46.536247   89.922935
H    4.918137   50.740498   37.466946
H   75.690338   28.952623   43.448372
H    9.681911   34.654594   16.406277
H   51.101707   98.603065   17.050571
H    6.043351   82.446930   49.828117
H   17.088291   28.055550   58.723404
H   55.230591   20.873360   64.552887
H   46.020645   92.577492   26.742874
H   77.971489   66.452927   73.997681
H   35.940491   61.215710   59.310402
H   39.659653   47.156239    0.247152
H   63.709393   46.871765   40.443863
H   57.706001   77.543053   72.266586
H   23.928795   61.867924   51.110611
H   54.475578   19.625191   52.056107
H   37.029926   65.032944   92.339272
H   80.993843   55.184124   41.638538
H   55.349312   54.460613   36.186260
H   56.833328   39.620125   57.903954
H   81.517006   38.865158   50.332333
H   98.709785   10.363272   43.238209
H   98.352600   94.492882    4.856546
H   18.278473   14.836369   86.981537
H   66.831200   81.270340   83.281815
H   28.572510    0.176091   52.602737
H   55.141552   49.450665   13.420747
H   81.216034   27.630259   73.937134
H   77.193413   20.518124   70.631660
H   56.432953   35.660034   40.806313
H   65.395943   15.588029    3.257380
H   91.729881   28.239790   91.819626
H   42.885162    6.105803    1.461670
H   29.329367   76.093018   53.157845
H   45.259651   47.967278   86.060715
H   74.495445   49.034283   35.813492
H   50.994656    2.971058   91.697365
H   58.135197   39.043365   45.613594
H   56.351566   17.004824   98.514061
H   26.415434   58.526409   60.706322
H   69.931358   62.712742   36.787601
H   43.384403   66.902061   75.558914
H    7.189344   68.875610   36.201099
H   52.441895   34.185242   80.905510
H   28.062130   72.945412   24.483225
H   73.579865   42.602352   18.225660
H   96.193802   10.324949   21.137848
H   29.382715   28.952614   55.714943
H   69.686615   78.568375   59.464676
H   55.898438   27.499239   50.265724
H   20.440891   89.200562    3.881388
H   92.169937   80.911690   50.662495
H   24.378872    8.397291    0.334707
H   16.674137   63.949074   89.489914
H   87.242737   53.217972   70.128120
H   15.673942   93.120300   91.130066
H   72.338966   37.875740   70.353737
H   19.081705   20.965796   68.450272
H   35.304527   37.638977   66.594742
H   61.567734   98.893730   28.524010
H   72.928040   53.768051   97.311127
H   55.348213   52.515816   36.961178
H    0.813117   81.830078   10.373442
H   70.067657   14.432583    7.900715
H   83.975151   16.487028   78.399315
H   63.419182   31.631750   60.592266
H   75.305321   42.163162   54.625355
H   57.622116   44.533180   28.188910
H   30.642147   13.406382   30.415081
H   62.213295   47.350368   41.107422
H   96.537300   94.583282   40.004250
H   51.977474   51.007122    5.501160
H   98.887802   57.942154   11.176615
H   50.669918   42.308228   29.914402
H   94.630623   91.861305   71.618073
H   50.077179   17.527351   44.180939
H    2.956733   86.191444   87.613533
H    7.408987   50.665817   23.679533
H   89.761017   37.163361   73.909554
H   99.262398   77.247704   11.018961
H   80.670547   22.875168   99.288887
H    9.963318   86.825394   77.809891
H   33.666691   53.444538   73.535271
H   20.023911   90.556015   81.376724
H   50.201344   40.613323   68.409645
H   20.283825   61.625404   64.342400
H   67.372971   12.804916   58.981232
H   95.914566   88.195320   16.416626
H   14.575622   34.117920   22.435219
H    8.674175   45.902569   69.142654
H   69.658432   24.762608   95.425446
