200
TIME:    0.976, STEP:   976
H   32.086716   60.032368   27.924721
H   34.523743   43.622917   19.776482
H    2.711724    1.352713   81.600151
H   42.651413   85.576302   25.253479
H    7.395815    2.383110   43.076591
H   65.675232   32.838799   43.764931
H   14.022552   54.781914   63.897213
H   19.381975   20.666809   98.947906
H   17.317461   76.472290   29.764530
H   84.952591   64.587608   67.041695
H   37.846981   10.316345   16.219963
H   33.821259   61.667740   47.811516
H   29.238384   11.435350   31.126640
H   69.616951   56.312160   77.731621
H   84.088150   77.610359   41.167679
H    7.847652   95.641708   38.445930
H   18.842171   42.186325   79.710983
H   19.085800   18.549679   30.417387
H   89.513458    3.056507   53.318428
H   92.397804   69.597252    8.939542
H   66.917839   13.498291   92.121307
H   73.643776   76.946693   42.212143
H   72.965416   57.190140   31.476337
H   24.197525   94.769386   89.278221
H   35.236679   42.304771   19.147900
H   18.051840   94.999954   82.648201
H   13.149005   73.564827   78.674149
H   11.401887    0.491034    2.667877
H   42.067493   34.158638   34.028671
H   59.790031   40.481441   73.166428
H   12.400585   82.198280   17.094654
H   18.542141   80.756332   11.724058
H    9.339851   24.822214   82.169144
H   72.067665   64.380898   51.154800
H   12.667912   59.389328   28.619852
H    9.006752   33.143143   87.901573
H    7.388706   58.543503   91.480324
H   96.509796   63.793766   82.076202
H   25.830750   20.046150   60.791618
H   83.024399   36.661877   34.946381
H   80.723305   70.841904   25.953682
H   49.973099   27.673021   18.006630
H   63.450024   70.874458   77.657631
H   35.641617   98.980476   45.070454
H   53.924652   98.750473   70.923973
H   30.702314   94.684395   50.692394
H   93.843781   90.152954   12.315215
H   72.197609   65.539375   21.188675
H   15.544089    0.822349   61.696972
H   35.779140   21.122915   74.575623
H   60.699936   61.180443   98.700813
H   93.004082   48.365948   79.365456
H   72.029259   73.374992   17.543991
H   11.452383   97.715439   92.602333
H   46.045578   60.016525   66.970375
H   95.871269   54.216949    2.749065
H    3.330091   19.530617   41.759571
H   75.449692   75.689011   92.018486
H   12.650827   88.695236   24.927128
H   26.080708   91.856361   53.388519
H   48.035851    1.016884   20.732227
H    3.164405   18.168413   54.708839
H   91.723923   40.452454   60.053905
H   41.959404   66.202385   20.100395
H   83.179672   87.051239   48.026600
H    9.868045   45.154655   46.092789
H   58.682961    7.636889    1.041156
H   93.219841   93.123268    1.843250
H   42.701538   15.799232   52.664131
H   41.000271   54.457989   50.943287
H   58.142288   89.321869   92.968353
H   11.455379    4.476301   39.612850
H    0.853242   38.387218   74.850494
H   31.843580   92.787041   81.999916
H   88.106949   12.785705   33.006027
H   71.917030   93.093178   58.068024
H   92.316742   57.349731   61.734318
H   99.294983   19.372099   22.800056
H   17.131639   62.476830   18.619390
H   57.184277   86.562210   59.357330
H   74.605644   17.662901   90.206635
H   58.999630   55.353306   65.104301
H    8.128222   21.739603   68.745293
H    0.673258   85.926491   17.839142
H   12.699112    7.106803   36.924408
H   45.401962   60.022858   12.461817
H   68.841499    4.317770    3.458690
H   69.210884   91.151886   39.202141
H   88.213699   73.848557   79.821289
H   19.757729   19.037806   46.768337
H   10.390772   41.246433   77.480804
H   78.928719   94.992981   14.427250
H   82.224411    8.561378   74.768158
H   27.024115   67.991508   89.313896
H   43.773613   46.970390   98.593346
H   38.792580   44.164742   94.456398
H   89.289482   88.821190   30.026939
H   99.813622   42.142918   58.293137
H   20.340660   62.405228   55.489525
H   80.001549    9.886316   27.430094
H   42.704006    0.776069    3.597223
H   17.939634   87.791580   61.804787
H   38.435989   10.271995   40.787350
H   57.241051   69.298370   19.390614
H   24.363092   17.800491   48.949474
H   16.561441   90.738876    9.432097
H   87.372108   36.967258   50.102871
H   60.413914   62.533043   90.282356
H   91.500908   30.799248   34.721943
H   28.009676   17.798548    9.139437
H   56.878014   89.671028    1.313681
H   15.545853   81.853210   98.894707
H   44.310959   88.815430   77.926338
H   60.731010    3.530197   55.975677
H   39.289223   12.616206    0.966040
H   84.002296   84.267769   12.137592
H    2.314134   18.806517   92.760178
H   37.036983   63.223164   19.266594
H   46.812828   85.346176   47.165470
H   90.205727   61.364315   76.799759
H   48.236214   26.650303   63.402470
H   86.533417   10.044727   69.836945
H   49.980537   90.781204   45.863476
H   93.233978   40.834221   85.634270
H   54.893425   90.729851   68.471092
H   74.685394   82.490295   11.321213
H   77.092201   52.626450   42.630447
H   59.329796   93.342430   41.218639
H    1.525147   25.842190   68.117561
H    3.418762   20.660881   79.040428
H   78.319160   58.906403   31.538052
H   53.449760   93.351181   26.683674
H   90.034431   18.402361    2.850944
H   64.831451   31.873135   58.765057
H   40.784916   88.062042   22.596329
H   42.755295    0.682263   72.838585
H   70.111221   88.440010   91.978065
H   97.496178   41.240604   71.569221
H   65.551025   54.626358   71.376015
H   43.846626   73.792015   75.006805
H   87.054916   41.424744   38.684814
H   23.356331   63.373497   63.404240
H   31.345671   70.306435   74.559296
H   23.987984   99.885658   90.320717
H   74.897400   45.357651   73.135437
H   72.908226   74.655380   94.596031
H   62.138481   93.554649   42.011997
H   22.555519   46.021965   64.602318
H   84.861053   34.062981   90.627808
H   32.923584   96.710197   62.454208
H   50.279327   73.809464   45.787922
H   64.769356   86.743828   25.087753
H   10.367064    4.318325   77.628555
H   29.365494   18.036654   57.763813
H   42.797718   73.317520   74.067619
H   85.350975   45.353855   76.705963
H   67.015366   82.956680   89.470627
H   56.510056   24.851059   26.967113
H   78.696190   98.960861   75.309456
H   55.428089   26.913305    6.485200
H   61.185562   54.508263   63.846771
H    9.047022   19.242153   29.167877
H   96.900505    2.480457   36.926022
H   38.290527   41.801121   39.710724
H   51.907066   47.062119   17.056162
H   24.594299   41.020962   58.278507
H   62.226250   85.662666   60.024067
H   24.275158   64.418976   78.447281
H    4.074543   25.776716   35.119019
H   60.060478    4.905545   82.115265
H   65.304443   14.386565   35.914307
H   20.736536   38.109489   59.718246
H   51.893524   45.827625   69.715042
H   62.162376   56.935020   91.315201
H   37.229858   89.499924   64.624733
H   23.625359   51.643440   24.010895
H   27.856831   75.914185   17.694702
H    8.253075    9.902763   74.291336
H   56.778225    4.269464   60.527821
H   51.290565   62.350121   96.767570
H   67.980560   11.564866   24.607479
H   34.072746   31.004482   96.485062
H   31.745861   89.389435   20.648880
H   67.508705   26.582180    4.266840
H   95.040787   56.411774   75.364609
H   14.668144   42.434219   87.637794
H   56.979919   91.918037   15.573172
H   55.061920   98.400337   51.280464
H   85.303383   64.455116   74.955032
H   62.997482   54.269650   75.001846
H   82.978546    6.673908   74.045601
H   41.619347    4.930870   15.249810
H   20.448799   35.033974   74.667732
H   22.245745   92.904419   48.145924
H   59.636795   21.381401   19.408752
H   77.125015   12.189445   19.482815
H   14.353553    5.628814   28.308577
H    7.519381   82.778496   26.209999
H    2.098616   13.671282   45.100563
H    0.331279   10.057224   87.523453
