100
TIME:    1.163, STEP:  1163
H   38.673012   15.368185   98.081253
H   68.919273   67.802620   51.361904
H   99.746399   57.574795    9.684341
H   81.671814   84.733910   76.416130
H   84.754166   65.977104   34.170753
H    9.981991   99.948128   93.921165
H   92.017876   39.869335   81.400887
H   28.476791   89.216446    1.410528
H   25.039238   74.475647   26.879988
H   43.057579   33.082314   53.233490
H   92.075607   13.038169   27.723753
H   11.450596   81.985985   10.145681
H   69.282761   91.344124    9.536546
H   97.497047    1.491511   45.745495
H   94.646690   66.140564   94.867447
H   54.762741   10.011593   36.501450
H   30.563126   58.908035   79.243858
H   25.997017   38.144089   59.227341
H   63.374062   27.142435   24.634165
H   61.182701   81.116806   95.515129
H   95.262573   40.437370   25.678791
H   73.863823   45.634964   20.227589
H   70.216301   85.163612   99.074371
H   10.986267   50.630100   20.699593
H   87.988884   93.939247   45.143272
H   41.326321   92.955933   80.164551
H   61.792999   94.132095   23.044661
H   34.410599   10.724389    5.214782
H   36.459412   54.608311    2.197419
H   45.587429   62.055679   75.843895
H   61.850864   26.336290   17.382198
H   39.189610   20.380829   91.599358
H   52.278591   83.391914    2.569180
H   27.241463   67.140724   22.755697
H   51.863640   71.006233   95.548050
H   73.673096   75.843887   16.642614
H   91.345940   61.944679    0.105292
H   15.923084   37.667957    4.511962
H   98.435318   55.681374   30.658844
H   53.651253    3.306593   29.536158
H   55.762093   96.088097   69.744308
H   27.097374   64.055992   57.439793
H   21.258436   70.474106   85.477791
H    5.094398   32.261490   94.446175
H   55.773132   86.004684   55.630676
H   63.083179   85.099220   87.894234
H   48.360279   88.477783   37.560982
H   56.301525    7.357595   40.537762
H   99.028130   36.129387   98.080582
H   50.281620   48.451000    2.324061
H   43.455891   57.363503   65.679352
H   61.652412   55.821972   97.712112
H   33.004463   28.752197   35.324303
H   49.758564   88.229424   83.136978
H   48.174110   60.460598   10.274971
H   95.021408   11.309689   53.035538
H   69.979721   55.989159   66.598412
H   39.458923   67.056679   83.598831
H   82.000114   87.907700   22.198849
H   82.272476   17.179480   30.531090
H   33.064129   24.487061   23.719398
H   57.634003   17.120316   42.733398
H   53.119232   27.845982   53.771828
H   22.899988   48.120918   95.563347
H   78.484535   67.958214    3.868741
H   29.900246   84.456947   14.951021
H   94.258499   88.570679   23.212330
H    0.029246   84.049973   21.800726
H   14.865042   66.220566   87.290993
H   53.944763    6.637986   99.284180
H   85.101280   16.270411   48.199070
H   78.071976   12.927855   41.771172
H   31.162548   60.777882   31.927639
H    4.593389   75.783493   34.088051
H   18.245190   30.298510   89.560844
H   53.155018   82.110497   17.674835
H   72.548515   25.745687   11.612925
H   86.620178   74.675926   78.668732
H   17.297586   50.095554   30.656322
H   42.489883   45.615181   20.727570
H   33.640949   41.313427   49.498119
H   28.583645   51.822830   89.527786
H   91.383705   26.667997   40.669804
H   30.173811   11.681008   57.202827
H   95.700455   76.138412   35.012566
H   24.524281   51.774860   22.545677
H   44.828865   18.793358   78.999374
H   74.677170   12.181969   83.652794
H   79.817818   29.417727   18.684826
H   63.513046   61.428337   65.789879
H   71.617287   36.230518   58.022167
H   64.337181   82.975014   55.681046
H   59.904152   62.476143    8.887510
H   59.637024   83.777626    5.234236
H   36.485462   45.555649   42.810387
H   89.980591   49.805107    7.378458
H   70.288925   34.422482   70.303848
H   11.135289   26.139923   37.428413
H   53.309349   41.863529   47.631596
H   11.467667   48.831348   85.672188
