200
TIME:    0.021, STEP:    21
H    2.741730   63.201809   11.594812
H   26.012329   29.680716   81.006653
H   22.727900   59.552559   34.561272
H   10.460485   74.414040   50.226490
H   17.535460   78.178726   56.807194
H   96.743042   58.758999   72.032280
H    0.186361   55.459518   45.412449
H   97.981125   79.429443   32.845901
H   78.534607   90.789421   53.061920
H   18.570446   77.966545    4.710393
H    4.560247   89.915840   86.041061
H   29.872208   36.177418    2.307319
H    5.799090   79.739738   70.267418
H   14.755356   52.282963   31.712795
H   30.195347   70.258713   43.517437
H   35.683823   34.989723   59.047298
H   73.905029   97.461601   26.064840
H   41.762661   72.639091   47.419266
H   57.738903   37.630161   39.259953
H   89.359512   82.712181   45.960247
H   55.456848   65.825966   35.873852
H   94.904533   40.443474   79.014091
H    1.563361   64.133766   54.390991
H    4.006508   86.123390   92.285172
H   93.727661    3.895941   53.224857
H   18.842379   52.617851   14.189604
H   94.655174   54.402454   40.276550
H   89.484406   61.094944    0.155028
H    1.844804   63.186348   39.620731
H    2.945969   14.897617    6.201226
H   13.647414   42.299747   15.927061
H   35.908493   58.373520   88.211334
H   32.414841    4.273150   70.504143
H    3.675068   63.338989   34.462410
H   58.498005   98.850266   35.884914
H   40.214947   54.915249   76.965210
H   79.978775   79.155800   84.310829
H   43.747780   39.090340   25.014105
H   61.175484   54.242691   39.563648
H   92.182991   40.589069   72.251068
H   80.441086   15.458532   94.255226
H    2.438814   47.699184   46.324848
H   80.645035   92.812820   42.196316
H   37.769150   52.598240   10.915868
H   21.294579   69.613472   36.460854
H   44.141651   19.538061   40.306099
H   75.847183   36.941463   91.377022
H   95.447464   65.553947   55.520645
H   78.610893   37.062908   61.008438
H   69.953827   16.813204   14.977820
H   83.417908   73.268036   36.547897
H   29.509848   31.928570   58.832386
H   46.271191    0.689482    5.063052
H   25.665979   77.562164   78.460068
H   86.468704   81.255424   97.856033
H    8.113079   77.745193   71.476990
H    6.055481   15.916747   52.003788
H   65.016037   53.488354    9.256152
H   32.802208   70.246902    1.829723
H   48.168434   97.218910   71.042671
H   51.128788   19.649155   48.634975
H   86.001869   15.906125   47.387825
H   65.413918   20.669727   92.273361
H   18.819876   64.839890   98.778084
H   67.827919   72.814255    8.974168
H   47.330311    8.052999   28.926804
H   94.355568   27.781435   81.310493
H   98.567818   90.952019   82.935730
H    8.732820    2.893777   64.751724
H   46.497612   37.812958   50.994289
H   58.561237   72.804344   67.423386
H   38.295021   29.578285   46.297821
H   70.543106   21.876980    6.828674
H    0.730655   13.778375   54.197548
H   76.478378   97.326164   77.910088
H   47.778275   26.808403   64.308365
H   96.353226   21.797346   75.243309
H   34.666603    1.982041   55.456230
H    9.865570   19.936153   39.788898
H   71.575996   91.888329    4.647664
H   34.073231   33.803169    4.384341
H   17.007006   72.528412   94.627464
H   11.854137   11.264054   96.687378
H   31.815643   54.698387   86.713715
H   46.706852   97.008072   63.988522
H   18.497229   93.436783   32.341702
H   26.039885    2.327762    1.269263
H   77.152702   26.695107    3.182043
H   58.988918   71.505974   76.369339
H   24.541035   76.230988   57.274853
H   50.422729   33.002243   81.728584
H   85.580902   86.613998   93.589249
H   36.856224   19.332014    1.966984
H   69.848709    2.301622   63.091454
H   19.575632   59.888596   58.818680
H   78.341377   22.812908   39.358337
H   76.334846   21.853914   88.897346
H   12.915138   25.035631   46.520061
H   41.980293   71.971840   52.105145
H   63.396595   94.368500   27.196939
H    0.095336   74.371277   58.626949
H   82.428642   73.343300   67.072617
H   18.639730   45.173264   27.442286
H   11.352551   67.535141   81.465660
H   25.629061   30.350750   17.987289
H   78.753128   37.495277   54.143864
H   55.284077   27.377493   57.278442
H   66.041084   25.865887   27.209827
H   67.231003   42.854053   88.542824
H   97.332016   31.113844    4.465422
H   44.313183   97.969864    0.641768
H   77.200340   57.837383   88.016602
H   60.897701   77.733315   98.698929
H   63.966026   24.118715   80.601410
H   71.158501   72.849136   34.451542
H   22.975849   12.204138   69.054726
H   41.579082    5.358881   81.627060
H   41.882221   16.217072   38.356102
H   10.545331   49.491421   94.363342
H   65.003204   42.303951   41.173199
H   38.268867   20.304134   94.696075
H   27.738518   32.667980   41.746250
H   26.956499   31.058956   17.532516
H    7.303907   75.200165   27.455393
H   83.466957   14.369813    0.056307
H   39.698986   56.359970   29.759857
H    0.830107   48.167374   79.512543
H   80.218964   85.852348   33.152958
H   89.772659   60.410957   89.881058
H   57.130363   25.187353   62.770630
H   39.768555   93.005219   95.042137
H   90.105988   83.879288    4.162505
H   93.152870   71.939804   95.746086
H   11.659264    7.387898   47.011196
H   93.607368    5.329931   66.480339
H   68.190971    1.907917   86.907990
H   68.530144   86.006462   44.436447
H   89.350349   71.057991   86.658676
H   40.588943   41.270988   71.601883
H   43.329315   19.593512    1.542881
H   39.775593   69.509621    7.835827
H   67.320129   34.356716   41.141647
H   62.045574   52.730095    6.770848
H   67.748131   34.455273   74.495369
H   30.007908   77.030205   41.907337
H   37.915936   58.202145   40.334850
H   39.551659   97.736855   48.849976
H   48.632370   81.570709   70.081444
H   59.330662   73.935104    0.121587
H    2.443998   86.224449   98.180054
H   83.939491   57.590664   52.997490
H   24.568859   13.169395   55.015293
H   66.002022   40.027363   11.152897
H    4.120649   96.115349   81.364365
H    4.928323   48.095436   56.790821
H   57.000870   42.985882   47.323307
H   57.018871   54.316360   78.162643
H   42.932461   40.173668    4.593339
H   22.405081    2.559517   10.726299
H   66.134247   65.879456   69.836761
H   51.804745   93.306595   89.238754
H   53.886440   24.191217   37.441212
H   55.792492   44.117947   37.323112
H    3.236067   13.746028   80.568848
H   61.051086   14.657311    7.672716
H    8.140527   71.406639   63.498978
H   78.670914    1.108938   49.900070
H   23.440903   20.968525   38.956776
H   91.097198   28.882404   37.374058
H   16.478840   12.112381   92.869507
H   83.548767    3.029401   35.994453
H   53.728493   73.580750   56.785603
H   33.441547   86.864395   96.586075
H   73.917717   79.794052   69.171310
H   81.616608   96.683990    9.528094
H   94.145546   46.477898   23.076637
H   37.667526   46.079906   77.746765
H   99.788994    8.992004   62.079876
H   81.202217   26.470606   71.696236
H   96.718201   52.105904   83.295624
H   85.416130   77.341492   46.811176
H   14.810447   29.838711   61.621212
H   75.716980   90.392990    1.735591
H   46.712349   24.814743   69.133507
H   82.690895   97.833092   79.299088
H   94.675652   34.375824   82.858131
H   23.726742    8.275903   94.413040
H    0.942299   57.948608   17.863668
H   12.960459   60.196800   64.040497
H   45.631130   59.464619   62.936115
H   37.358322   38.269932   80.865364
H   49.448231   78.977676   27.413851
H   99.236084   12.313935   52.789524
H   38.929783   54.790096   28.899483
H   92.410034   64.037254   22.532656
H   74.793472    9.846063   32.566856
H    8.005563   79.587837   96.074966
H   35.274342    1.758446   53.142963
H   14.833725   10.999115   87.811516
H   10.291980   42.412094    0.791526
