100
TIME:    0.005, STEP:     5
H   16.984407   21.562683   99.141434
H    1.131145    5.015805   78.315918
H   79.850342   74.263557   23.281158
H   81.477448   32.445000   39.889389
H   95.126266   73.158295   65.569771
H   27.938801    1.208210   79.240959
H   52.707432   61.676594   90.843491
H   19.493307   89.034729    7.734367
H   53.505089   85.812592   99.771599
H   74.703972   16.459278    7.884266
H   99.789948   66.443695   39.267868
H   55.651295   23.941093   92.573555
H   42.944046   61.404877   24.632191
H   54.834538    5.061851   57.621605
H   80.563957   69.574478   50.533024
H    1.320069   11.301800   32.625553
H   23.663771   82.327766   73.809914
H    1.251711   94.457352   99.372849
H   45.342155   78.563736   63.624275
H   92.514046    5.427656   16.529123
H   63.979843   55.720367   57.105202
H   62.827244   44.106537   18.829737
H   85.677269   94.581551   32.208221
H   18.577015   36.741734    6.702940
H   29.403669   85.775902   36.595108
H   46.629581   27.466938   88.701073
H   61.648602   42.269711    0.065625
H   32.118423   56.672558   66.941757
H   11.279706   49.545437   56.935791
H    1.185857   90.715897   83.786339
H   16.298433   22.490564    9.016348
H   66.073059   52.371780   98.801231
H   70.710999   68.116447   98.247391
H   78.313408   73.264496   71.540840
H   80.647545   58.542221   25.033249
H   72.989891   84.878838   20.627127
H   80.280510    4.349973    8.857752
H   63.781410   58.862736   22.794573
H   50.496593   80.401253   41.647804
H   62.721531   11.714817   38.427383
H   34.899761   56.350689   42.455349
H   31.171799   12.080811    3.035382
H   11.284947   63.529919    1.834804
H   79.040436   12.855706   81.220108
H   56.220963   31.694672   56.534920
H   77.887581   63.297863   83.337898
H   36.132862   26.010098   27.665960
H   56.239681   95.433136   68.887314
H   65.173027   32.034946   44.275246
H   25.994650   30.825497   83.315201
H   43.536983   69.162270   53.482212
H    5.376576   63.275925   73.734421
H    8.983183   22.037720    2.579049
H   76.568161    7.120745   32.036274
H   40.361847   58.943913    0.448621
H   93.572495   12.527256   92.456589
H   96.569435   89.402519   56.463005
H   25.687956   76.414253   13.426250
H   90.671715   38.980362   11.099219
H   58.694649   28.172010   63.454773
H   60.016220   78.337753   14.006471
H   98.733673   27.898819   95.127579
H   74.572899    6.812373   33.215057
H   43.382790   41.821678   27.005293
H   32.519653   60.445843   96.026604
H    1.038344   42.024616   46.481503
H   87.167168   48.534603   67.303757
H   80.020317   17.823074   66.441628
H   57.153000   49.427055   59.920200
H   30.487831   48.395729    1.720387
H   21.874285   95.063972   62.087437
H   73.554100   51.359581   56.988567
H    6.665428   18.059689   61.621532
H   30.081039   49.063999    2.911333
H   62.411182   28.650812    1.776639
H   25.775854    7.892609   95.593674
H   67.409821   26.110821   91.119934
H   32.215240   50.392948   14.716112
H   61.794182   53.484730   17.744205
H   99.280228    8.681479   20.490290
H   10.980078   29.332403   80.287552
H   41.699574   44.260208   86.362366
H   18.112251    7.340798   30.375978
H   50.514404   12.589451   62.973518
H   52.088020   48.573471   47.267525
H   51.185490    9.230971   42.132710
H   67.488655    2.989391   23.781628
H   56.035660    4.893785   95.685844
H   55.787056   93.894203   28.160191
H   65.892525    9.081429   24.390638
H   24.227205   73.700516   33.567333
H   78.656578   95.882790   33.620453
H   85.605034   27.781195   19.301397
H   47.711548   13.535471   27.156185
H   56.505207   49.282352   16.202477
H   94.334534   95.534233   67.190636
H   62.205437   67.967323   36.901299
H    6.883813   16.280243   55.955070
H    8.473742   36.871845   44.632656
H   39.552044   78.573921   97.204208
