100
TIME:    7.929, STEP:  7929
H   81.116447   94.894218   91.886795
H   81.497238   34.525059   78.054703
H   16.063181   44.347595   30.265255
H   82.807465    5.974976    5.546485
H   24.148375    8.301564   50.717056
H    5.058661   92.618019   63.982460
H   37.411312   96.740891   10.511295
H   96.682526   74.560600   80.179604
H   58.717918   23.952164    0.984139
H   58.190681   30.233690   18.171787
H   62.718765   85.283234   75.987564
H   53.215004   21.130154   28.533749
H   38.143791   82.053833   37.144802
H   62.484474   80.636482   60.641636
H   76.911629   61.775467   69.594513
H   82.714951   18.229797   74.864532
H   86.503944    6.413378   95.196503
H   70.623779    9.013870   24.668045
H   68.758804   10.983296   81.092056
H   78.894608   37.432194   56.175789
H   93.758629   66.861145   42.036427
H   22.541292   54.609848   44.050674
H   79.878624   30.137053    5.491521
H   82.339798   31.682100   18.197021
H   45.997261   57.351807   95.097389
H   10.221478   92.356552   44.728470
H   78.352905   12.877131   57.294529
H   63.514656   26.538610   28.862360
H   83.579109   68.472916   82.364372
H    5.026803   94.596390   13.721458
H   28.110937   33.064697   82.061836
H   66.399193   33.441532   65.236824
H   28.864668   88.359337   12.103894
H   13.120648   47.077126   37.714371
H   83.624687   59.333458    7.457876
H   61.892063    6.461961   94.498573
H   40.293262   14.157930   33.239407
H   36.272324   13.846039   81.968681
H   10.385245    8.658438   75.933449
H   16.370621   69.897629   61.872902
H   93.361023   28.246000   29.148283
H   32.001106   72.696732   84.749504
H   79.524200   11.051561   74.192696
H   73.049316   45.730309   55.990276
H   68.872887   19.055523   34.616364
H   75.775322   14.147899   15.373713
H    3.682219   56.044319    1.574656
H   56.671566   77.036118   59.179134
H   96.804878   75.769844   28.182404
H   92.211182   51.417889   29.136341
H   42.957150    4.149412   37.010178
H   90.477600   27.986124   53.547424
H   73.342674   67.983765   42.367622
H   93.076263   77.836761   81.701614
H    9.475864   53.465164   67.788132
H    3.471319    4.193185   22.704926
H   98.917038   60.758507   10.101375
H   35.645676   28.091417    9.321584
H   15.617504   73.797493    2.776463
H   35.786415   37.237728   38.090965
H   59.868114    9.836927   96.189400
H   17.502235   54.140060   36.592102
H   12.359939   66.222321   89.755127
H   87.510124   84.955673   11.865323
H   47.039223   27.567926   33.962616
H   14.257298   48.099205   15.008685
H   51.410187   22.489037   49.874676
H   32.655617   71.005241   45.254654
H   52.083595   80.058968   62.941185
H   91.058617   46.896595   85.026321
H   70.250862   55.913223   67.038795
H   20.333805   88.325584   37.238735
H   90.005127   26.111814   58.452625
H   55.657566   47.592739   32.038666
H   44.418594   39.990231    2.483886
H   13.101798   15.746925   62.406960
H   86.904991   39.525742   31.362799
H    4.498707   32.264812   52.329739
H   41.736931   30.228748    6.143944
H   10.679935   77.089073   37.830696
H   66.038383   11.311502   53.888412
H   36.282372   95.891327   23.664394
H   19.401152   39.719028   85.060944
H   95.652184   90.660645   39.225330
H   66.253815   52.913242   79.125435
H   68.808212    0.298417   92.396912
H   96.714760   26.849586    1.628582
H   83.549156   70.588501   13.366570
H   20.233681   52.697975   63.341805
H   65.309662   83.055557    7.660605
H   48.510059    1.575533    0.907794
H   64.964607   91.816284   84.605751
H   93.717789   65.430016   32.166321
H   13.573462   94.216148   61.439068
H   19.504040   39.498413   98.287292
H   48.824493   82.624756   57.905785
H   33.235222   22.708145   81.184486
H   22.972513   78.785774   19.706602
H   30.993614   71.041542   80.900658
H   31.711939   75.161148   33.914562
