100
TIME:    1.902, STEP:  1902
H   88.698151   47.598190   97.404678
H   48.362679    7.867809   97.977898
H   12.448507   10.741740    1.007962
H   81.795853   54.288048   35.907948
H   78.135010   25.211201   14.133936
H   98.522469   99.147514   67.107994
H   53.285534   89.769447   39.191734
H   70.392845   53.148357   33.558739
H    6.873207    3.423779   80.363365
H   22.863100   43.693260   82.170433
H   23.335617   42.773487   56.538525
H   83.246460   19.027849   57.542458
H   22.276516   46.633812   36.085724
H   60.905632   99.213356    1.982149
H    3.634841    0.133267   59.346535
H   25.049835   45.373672   75.158951
H   71.149506    7.779305   46.526611
H   41.789398    2.206250   33.607712
H   74.886803   58.146469   63.565403
H   41.274490   65.420273   45.829628
H   51.409256   66.868103    5.621170
H   44.724064   46.610359   57.304001
H   60.349586   79.153374   77.931412
H   42.325127   59.493229   65.816315
H   61.557365   35.328087   50.595337
H   37.937809   70.933426   10.898147
H   98.066872   63.415493   37.709415
H   72.055984   45.218639   29.641867
H   52.528061   21.656267   67.263756
H   73.924629   43.765610   34.591671
H   90.921028   92.607025   58.904850
H   85.850708   99.964348   23.186378
H    4.331356   29.322460   69.144135
H   58.465385   99.415909   91.623459
H   33.494637   15.143693   40.546478
H   37.926525   33.895809   14.101281
H   62.224663   34.881691   58.335453
H   85.377953   24.142101   56.659222
H   65.215500   39.905907   59.830231
H   84.046059   34.124187   87.679703
H    5.261429   21.445776   87.154831
H   60.680267   97.219429   92.159348
H   27.623877   74.905670   38.856804
H   57.903542   44.648445   66.700607
H   91.671196   56.845699   18.869452
H   53.549114   99.194527   90.893715
H   56.163441   28.342890   43.875679
H   56.340992   14.966242   86.262932
H   20.628248   74.925194   68.604477
H   65.780174   59.699055   50.635456
H   43.399509   86.017448   73.471237
H   97.567253   87.247772   49.199986
H   48.334518   33.037170   92.404350
H   32.646862   76.175117   15.746553
H   89.341675   25.244112   16.545851
H   95.946060   10.533037   27.878235
H   16.830973   34.665779   36.883553
H   84.430267   97.266830   64.564529
H   40.283157   19.132669   65.466949
H   33.506245   73.982574    9.512605
H   79.680130   90.120430   66.099724
H   31.405521   10.240625    9.293977
H    3.243616   77.450996    3.073477
H   73.647156   52.140900   75.502907
H    7.814936    8.934020   72.691437
H   84.502480   47.718941   58.646435
H   34.968002   14.120524   58.891064
H   48.981682   26.314991   57.129200
H   51.698853   13.120728   40.942818
H   68.915833   43.808533   97.728058
H   61.635414   65.988716   39.335941
H   17.138796   88.401276   95.876915
H   82.977417   24.225933   12.977909
H   88.331779   29.016867   90.167046
H   53.873573   31.350019   45.582745
H   70.625420   29.472593   67.947960
H   39.644226   61.695335   24.686537
H   21.339748   26.353151   19.479702
H   52.721909   47.930515   38.898796
H    6.247686    5.366491   57.062172
H   48.102734   48.958721   93.667168
H   84.032364   56.649063   27.733767
H   38.142345   39.002991   11.055920
H   81.010872   74.918190   89.703217
H   59.717957   29.912926   63.374878
H    7.514085   78.919319   73.863869
H   94.184990   65.062027   14.238087
H   86.573608   53.015808   75.970039
H   95.153511   88.272209   12.638723
H   98.175613   31.021942   92.210121
H    1.860209   76.133224   73.628494
H   19.016024   38.554012   69.761742
H    7.320351   84.622299   66.059036
H   31.063297   28.602598   55.059799
H   23.707645   79.360291   59.792412
H   51.018997   20.623285   69.208130
H   11.630773   76.832436   27.803680
H   13.848636   32.432068   25.603745
H   18.106026   45.049068   85.729263
H   57.361984   29.848110   14.495865
