100
TIME:    5.971, STEP:  5971
H   13.528233   74.451073   93.679398
H   35.569862   28.423422   54.597103
H   82.398819    3.482089   53.254818
H   82.478821   86.644501   12.871552
H   41.689346   51.359406    3.807647
H   35.426991   94.739265   70.075188
H   40.030003   64.529564   57.393055
H   50.577469    5.169992   59.957401
H    6.849358   12.206162   24.233358
H   11.671606    2.118253   41.506535
H   44.847153    6.498773   64.591591
H   27.944366   22.985767   67.906776
H   63.044998    0.511617   31.713066
H   59.432518   86.671577   11.635181
H   53.127556   36.673386   63.753742
H   61.442978   89.483437   37.396210
H   43.954872   76.905418   16.952032
H   28.753935    4.290066   92.540077
H   38.267292   28.844011   77.936935
H   31.647919   79.011024   22.866022
H    9.949104   61.786327   95.180916
H   34.825928   52.010574   10.792435
H    6.021291   46.060463   61.513184
H   64.267006    8.258760   63.616169
H   16.027370   12.629089   80.637062
H   19.327135   50.142616   28.931843
H   47.193230   94.269058   18.439871
H   28.726440   35.145790   64.145157
H   41.004799   90.828064   74.919983
H   29.947140   43.057640   58.065842
H   51.052933   57.485912   36.972420
H   42.769749   87.539810   46.498665
H   90.946159   31.615034   35.711792
H   30.391296   26.516106   20.202280
H   32.349335    7.557467   88.320786
H   91.686722   53.103233    0.653498
H   52.495094   85.863892   78.956825
H   17.200916   49.682926   43.797894
H   93.033661   51.318291   65.678032
H    0.792365   53.198833    7.819864
H   27.175716   61.060036   83.019875
H   97.010513   65.018417   84.789330
H   62.672558   99.306259   32.765984
H   98.076080   12.865927   64.547691
H   38.715748   96.307999   67.064926
H    1.050649   76.804520    7.419039
H   88.383102   49.561600   82.781197
H   56.558300   56.869339   38.029545
H   39.567482   37.931358    6.287465
H   51.107685   21.613791   66.043259
H   43.091595   93.181656   16.371029
H   95.312553    9.674934   82.077034
H   32.728725   56.630615   56.083668
H   38.416443    9.778407   95.300926
H   65.375053   81.875092   51.135265
H    1.032633    6.252810   89.359863
H   74.786537   17.256355   23.879356
H   81.442780   13.000200   59.756332
H   61.195724   91.058052   53.087959
H   64.992981   86.738861   93.781151
H   36.356342    0.893701   48.849102
H   86.995461   72.364853   25.184875
H   79.432198   99.832314   24.021057
H   53.058281   74.289688   65.030350
H   69.323746   83.950577   51.622440
H   34.537865   45.436913   99.235451
H    8.503704   54.793598   55.342361
H   67.907921   59.025303   51.650928
H   54.497334   20.748344   85.741913
H   51.355309   48.466812   89.159912
H   32.427376   89.133911   90.521889
H   81.630569   53.359146   93.790329
H   17.670929   22.956535    8.649780
H   98.766762   71.513451   48.376640
H   50.056156   37.153507   54.040543
H   66.819359   90.257866   94.157257
H    9.082686    9.019068   96.648125
H   12.508769   60.292572   44.196411
H   47.843121   35.980015   84.300880
H    6.701861   83.750740    6.514213
H   27.715380   91.054398   36.861225
H   89.352386   83.193588   87.466576
H   95.553139    6.975128   98.590759
H   60.943764   23.110588   18.058895
H   61.591103   75.396263   68.930923
H   13.866558   28.378124   56.427597
H   65.944313   69.212440    8.263845
H   52.059105   27.267839   33.667793
H   79.598007   61.716408   79.355721
H   38.422047   63.614964   37.666130
H   68.380577   95.848923   59.558392
H   20.092432   44.555298   47.296432
H   68.206100    6.677831   80.751175
H   24.341858   75.426826   29.414293
H   53.357109   14.883350   53.292973
H   87.101685   59.943207   59.039032
H   88.652702   10.344071   93.791397
H   26.751917   81.903137   59.011749
H   24.268219   62.588932   44.903801
H   10.093723   25.409706   22.534954
