100
TIME:    8.262, STEP:  8262
H   58.596672   64.356346   91.581924
H   72.300308   52.570858   99.050125
H   21.787127   68.305344   26.356560
H   82.863358   92.255241   87.294380
H   21.164454   34.992985   41.687805
H   99.894287   92.257256   96.959297
H   19.959133   19.227236   36.552326
H   70.509384    3.370637   49.604965
H   50.532143   91.934967   80.024216
H   49.095375   35.015079   31.211357
H   31.743912   98.682297   43.911690
H   40.504440   37.821819    4.831286
H   16.909554   61.897072    4.052603
H   45.996056   79.610085   85.981804
H   80.956245   32.030258   53.580299
H   69.326050   89.104149   47.222931
H   59.726143   28.437992   25.510809
H   77.742508   92.810204   13.125040
H   73.946686   24.953991   98.637360
H   69.921249   30.361441   78.848000
H   73.997932   33.709225   32.999554
H   54.466328   55.051910   15.692627
H   75.432594   27.430056   95.963943
H   51.399475   35.665741   93.465683
H   34.086983   30.942390   97.556679
H    8.651394   82.539719   13.391014
H   49.637901   99.034378   63.902599
H   35.418289   42.081928   39.870369
H   90.819786   98.685593   66.622887
H   17.795074   86.354721   40.193512
H   41.217457   62.924232   55.715935
H   87.425102   24.242062   34.409325
H   52.321751   63.995094   42.103165
H   27.191566   16.559578   23.685995
H   75.337288   34.120659   27.718809
H   90.839523   32.544937   93.451851
H   72.231651    1.961863   59.478603
H   22.509079    7.751802    5.468608
H   96.329155    1.403781   43.662895
H   85.005203   38.722549   88.071655
H   70.602432   39.671028   36.993618
H    3.937493   74.002594    1.750968
H   82.389984   13.049099   98.246986
H   51.786533   51.321304   88.549835
H   39.988434    5.918008   63.112892
H   71.476646   20.498100   16.726576
H    6.285369   74.153633    4.772742
H   56.691891   80.465912   79.783302
H    6.538908   48.190674   14.898884
H   99.202881   56.486362    5.852871
H   42.934284   72.000648   40.521271
H    6.661540   97.086273   31.688183
H   80.247993   69.914612   23.028074
H   85.363037   72.404984   96.396378
H   82.961922   82.647278   70.618347
H    3.886070    3.842901   11.368820
H   20.027374   51.150002   41.772469
H   10.850486   96.642952    0.743862
H   41.881313   87.867271   77.212921
H   13.812802   62.834156   28.619652
H   80.873703   94.350708   70.224586
H    5.683418   51.040543   21.524757
H   34.967533   43.499298   66.920319
H   10.376106   86.769653    2.823822
H   60.257904    0.971250   64.973038
H   93.801338   31.544731   34.698277
H   24.693010   34.001492   65.951523
H    9.652954   90.049492   61.173981
H   68.680542   56.131706   42.055008
H   97.821663   63.621288   84.320038
H   59.675892   33.254532   63.044991
H   92.911987   77.268944   61.646168
H   68.293259    9.639910   49.913708
H   48.327969   26.518227   12.253832
H   60.459869   40.480564   27.731924
H   20.974848   37.089439   40.001511
H   17.148621   10.702766   37.269531
H   20.141985   10.491970   70.721985
H   57.704529   29.250622    9.860189
H   94.349571   58.949272    9.142525
H   72.557533   14.756539   73.791382
H   61.269058   98.050827   95.805458
H   40.464409   45.287998   16.773830
H   18.562176   19.156385    8.811796
H   50.039780   32.082958   46.844719
H   61.144848   12.530082   15.521747
H   18.955156    2.637490   17.507362
H   88.904716   43.940895    9.913910
H   27.145351   34.156761   60.618294
H   35.866894   69.356705   19.564096
H   62.137775   19.555767    7.940449
H   89.603233   16.860874   90.952141
H   15.063478   75.419609   57.917725
H   45.755821   14.418813   83.892784
H   13.745796    9.669365    5.939047
H   76.328903   69.474670   40.706001
H    6.803930   41.817833   62.033531
H   22.329744   95.264030   13.021044
H   15.130216   72.479515   53.009075
H   52.394871   66.614609    1.834823
