100
TIME:    7.911, STEP:  7911
H   82.333733   96.544914   91.903275
H   81.994370   33.549610   76.919815
H   15.753778   43.052582   30.476536
H   82.804443    6.716621    6.533143
H   24.309668    6.858799   51.205124
H    5.337817   92.637520   62.199791
H   38.354626   95.525528    9.103672
H   98.097290   73.003288   81.832222
H   59.160393   25.682854    2.117181
H   58.682320   29.975237   17.466946
H   64.393082   84.558960   77.721481
H   53.902061   20.227901   29.814960
H   39.291588   83.143402   38.933514
H   63.375740   80.691963   59.271778
H   76.693001   63.383316   70.460236
H   83.438675   19.804138   76.358673
H   87.951393    5.222855   93.557892
H   70.238983    9.889721   25.292000
H   68.478378   10.228124   80.143661
H   79.379654   37.814381   54.950264
H   94.826775   68.653015   42.524906
H   20.815615   54.585953   45.583542
H   80.118950   30.283377    6.006539
H   84.012192   31.466768   19.533852
H   46.641060   58.779343   94.964455
H   10.306347   92.887192   46.422424
H   79.904999   13.625403   56.937336
H   65.033470   25.698431   28.267382
H   83.187721   66.839798   83.215263
H    4.336621   95.041885   12.290558
H   27.402525   31.450645   83.485939
H   65.262657   33.938801   66.903175
H   27.596777   89.676323   10.482312
H   12.360085   48.726723   38.472702
H   84.072655   60.696312    6.362693
H   60.327335    5.052072   94.555153
H   38.566898   14.817179   31.821074
H   37.016235   14.175457   80.698387
H   11.145053    9.050581   77.677803
H   18.066017   71.582657   60.456627
H   94.591217   27.628431   28.724211
H   33.518044   72.626144   83.830498
H   79.369293   10.943586   72.892464
H   74.198761   45.428185   54.230404
H   70.434319   19.765652   33.076080
H   76.007683   13.804645   15.300585
H    3.541508   55.065437    1.401785
H   56.670467   76.850723   58.065395
H   96.278633   77.260689   28.900429
H   91.833252   51.143917   30.394894
H   42.958385    5.887243   36.820389
H   89.602814   29.656389   54.729004
H   72.969414   67.879395   43.412971
H   93.493195   78.130371   80.907303
H   10.909100   51.887665   67.635147
H    3.448900    4.212119   23.317688
H   97.775833   61.277885    8.389396
H   36.986008   29.791346    9.785241
H   14.197865   73.036964    4.158337
H   36.974174   35.854137   38.602928
H   58.732677   10.673983   97.592903
H   18.141090   54.307602   37.406601
H   11.137916   67.450592   90.989441
H   86.274162   84.857620   12.354043
H   46.324699   29.005556   32.286377
H   15.363003   48.994041   13.944350
H   52.854340   21.866730   49.005657
H   33.898994   69.975822   44.394150
H   51.186424   81.352333   64.070160
H   90.693047   45.992558   85.064499
H   70.822426   57.137924   67.254677
H   21.816067   88.923241   35.919415
H   91.178741   27.002188   58.914188
H   56.053761   48.731884   33.108185
H   43.551498   39.963726    1.119135
H   12.676250   14.593292   63.618065
H   85.270226   41.083740   31.043577
H    3.653120   33.441723   51.335613
H   40.873817   30.281620    5.943066
H   11.562652   78.069603   39.381416
H   65.685997   11.125283   52.812576
H   34.931740   95.774597   25.170277
H   18.262625   39.418003   83.346802
H   94.413750   89.120361   40.869297
H   67.130249   54.039204   80.870338
H   69.222397   99.637283   91.146942
H   95.512581   28.158333    0.770266
H   83.259666   72.028809   13.553200
H   19.860077   53.700203   63.489021
H   66.901031   83.796036    7.017167
H   47.773426    0.603625    0.527652
H   63.632786   90.462494   84.262703
H   92.563950   64.890038   30.774355
H   11.833845   93.124107   60.225353
H   19.815296   41.110794   97.873657
H   47.337769   83.335571   58.835503
H   34.663994   21.675224   82.219673
H   23.007257   77.895058   20.067984
H   31.851097   70.963814   82.408257
H   30.593943   75.623123   35.648617
