100
TIME:    4.226, STEP:  4226
H   31.534603   34.475525   95.276993
H   83.763985   33.864594   44.568939
H   52.395805   77.939568   73.737648
H   82.185928   58.539238    8.520932
H   57.319153   11.490039   51.119980
H   62.492916   96.629753   97.260643
H   31.486103   46.698071   20.931711
H   87.731026   54.203838   20.176250
H   49.744789   79.980667   34.075054
H   59.354881   77.062462   73.176758
H    7.162796   36.284657   32.680073
H   94.544670   35.518028   92.118172
H   74.397354    6.035141    5.105517
H   45.833916   92.050148   78.840866
H   31.906136   92.544312   47.633060
H   31.606895   42.107719   82.246033
H   84.277290   61.486393   58.097801
H   91.443321   89.190147   53.033413
H   11.089737   55.640938   86.004486
H   78.661308   16.072329    4.058353
H   13.499878   35.505871   42.542137
H   67.531082   49.694061   59.395340
H   29.320839   60.252434   11.438800
H   26.400337   87.365906   93.213058
H   78.438385   51.017319   67.749794
H   27.281828    1.722301   93.024818
H   97.665825   66.809280   83.819374
H   75.963715   53.695099    6.459239
H    3.060797   32.507412   57.406715
H   63.036758   86.245964   19.343388
H   82.375435    1.009681   75.031273
H   32.589306   35.751511    8.042030
H   68.032204   59.287926   78.508408
H   56.660248   86.435120   93.717216
H   75.724045   39.467003   82.062088
H   39.996296   16.427692    6.142381
H   85.127243   49.770981   41.457508
H   89.324043   81.614174   20.659023
H   66.693787   89.341057   34.781090
H   65.150505   16.559063   70.528137
H   46.434250    1.189996   41.908428
H   51.812332    1.522070    1.342933
H   47.641850   88.842010    6.722756
H    9.500612   83.593903   93.930786
H   90.081444   65.152710   17.740961
H   23.566479   43.521290    0.326960
H   74.750290   54.662315   66.033073
H   56.465107   38.896393   30.058830
H   88.561020   82.452240   75.898407
H   14.509440   95.056252   88.092628
H   43.222202   61.650520   97.975082
H   10.508562   71.598785   96.631958
H   96.532356   46.512512   57.430965
H   78.827171   38.254814   18.298023
H    4.313972   28.944704   36.290943
H   98.853897    8.088461   48.763794
H   64.160294   67.607231   57.915230
H   11.379018   77.793968    4.702436
H   23.572538   17.327534   87.050972
H   80.146027   52.613338   43.413094
H   26.280233   82.043114   84.903603
H   48.925621   88.607071    4.139831
H   60.964756   18.908379   43.680962
H   33.230995   64.783997   12.402531
H    0.058591   23.320023   89.117760
H   41.735176   32.185738   96.057907
H   48.508865   94.466980   71.093430
H   88.446922   59.226822   68.229836
H   67.527054   46.132919   95.184509
H   16.005503   60.699692   92.834381
H   87.837303    7.862530   11.453506
H   25.514416   11.272403   66.030937
H   31.448927    9.272167   53.395760
H   37.179867   81.950310   52.059227
H   65.922005   34.663921   21.757627
H   25.562372   78.420372   11.573792
H   50.648827   60.265827   65.787910
H   30.525494   74.393623   47.826904
H   64.162849   41.105633   64.836845
H   92.274078   78.797508   56.847527
H   93.570480   73.001572   32.566448
H   58.407852   71.826553   33.402466
H   85.175789   77.797791   32.405651
H   40.892029   73.786934   77.436722
H   46.558548   84.545998   38.089035
H   54.032764   64.284981   35.249588
H   49.399712   96.088287   25.055632
H   23.979731   66.950478   51.794304
H   43.385849   58.875145   93.627571
H   92.703171   35.406883   75.285309
H   96.967896    1.624192   22.707193
H   90.977631   13.317986   14.051264
H   56.348274   54.319153   45.807598
H   55.687496   69.572128   11.756510
H   83.525032   71.190971   13.196219
H   42.971878   28.850655   49.170616
H   27.162128   10.202018   94.147537
H   22.378225   52.219543   88.412697
H    7.396276   55.066921   91.064690
H    1.705150   70.185127   90.636002
