100
TIME:    7.745, STEP:  7745
H   93.559807   11.767669   92.055252
H   86.579025   24.553806   66.453629
H   12.900400   31.109726   32.425152
H   82.776581   13.556244   15.632456
H   25.797148   93.553246   55.706192
H    7.912253   92.817360   45.759621
H   47.054073   84.317184   96.122238
H   11.144569   58.641880   97.073036
H   63.240990   41.643280   12.566345
H   63.216316   27.591722   10.966740
H   79.834000   77.879547   93.712051
H   60.238258   11.907288   41.631096
H   49.876823   93.191650   55.429409
H   71.595192   81.203621   46.638645
H   74.676765   78.211258   78.444122
H   90.113022   34.323059   90.137970
H    1.300118   94.242996   78.446259
H   66.690308   17.967087   31.046249
H   65.892227    3.263861   71.397354
H   83.852859   41.338993   43.648201
H    4.677429   85.178040   47.029774
H    4.901032   54.365585   59.719986
H   82.335289   31.632811   10.756154
H   99.435379   29.480928   31.862396
H   52.578316   71.943634   93.738503
H   11.089031   97.780869   62.044449
H   94.218750   20.525927   53.643223
H   79.040733   17.950109   22.780359
H   79.578255   51.778828   91.062370
H   97.971558   99.150345   99.094353
H   20.869390   16.565079   96.619331
H   54.781277   38.524723   82.270638
H   15.904003    1.821783   95.527718
H    5.346005   63.939674   45.466202
H   88.203911   73.264854   96.263123
H   45.897068   92.050125   95.076942
H   22.645611   20.896914   18.740873
H   43.876755   17.213551   68.983452
H   18.152264   12.667013   93.764626
H   33.701271   87.122360   47.395424
H    5.936088   21.933073   24.813322
H   47.507576   71.975174   75.355217
H   77.940704    9.947817   60.901760
H   84.799194   42.641930   38.000469
H   84.834190   26.314617   18.870659
H   78.150566   10.639079   14.626184
H    2.243842   46.037971   99.807655
H   56.660336   75.140976   47.794247
H   91.425484   91.009590   35.522552
H   88.347900   48.617290   42.002090
H   42.969784   21.913908   35.070114
H   81.535339   45.060482   65.625793
H   69.527122   66.916870   53.053413
H   97.338226   80.838104   73.581985
H   24.126713   37.339615   66.224289
H    3.242147    4.386735   28.968719
H   87.251389   66.067711   92.601311
H   49.346848   45.467918   14.061193
H    1.105567   66.023201   16.902287
H   47.927956   23.094357   43.324364
H   48.261425   18.393589   10.535541
H   24.032753   55.852707   44.918091
H   99.868065   78.777985    2.372559
H   74.875847   83.953354   16.861187
H   39.735207   42.264187   16.827108
H   25.560062   57.246422    4.128818
H   66.172638   16.127678   40.991375
H   45.365700   60.482292   36.458389
H   42.912514   93.280037   74.480621
H   87.321678   37.655323   85.416580
H   76.093513   68.432388   69.245583
H   35.485653   94.434959   23.751917
H    2.002107   35.213161   63.170826
H   59.707554   59.237331   42.971527
H   35.554947   39.719296   88.532883
H    8.751746    3.954171   74.788368
H   70.194054   55.451950   28.099646
H   95.854507   44.295452   42.167568
H   32.913994   30.769215    4.090523
H   19.703121   87.112267   53.682503
H   62.436211    9.407937   42.890976
H   22.475430   94.698090   39.057537
H    7.762872   36.641880   67.538605
H   82.992638   74.915527   56.030323
H   75.212921   64.423119   96.962227
H   73.042099   93.540451   79.619446
H   84.425819   40.227882   92.854759
H   80.589928   85.311646   15.274345
H   16.414619   62.942970   64.846687
H   81.576996   90.624893    1.083242
H   40.980030   91.639549   97.022018
H   51.350468   77.977539   81.099037
H   81.922989   59.909199   17.937319
H   95.790627   83.053062   49.032207
H   22.685772   55.980530   94.059021
H   33.626862   89.890869   67.409569
H   47.840446   12.149270   91.766396
H   23.327677   69.680672   23.400724
H   39.758995   70.246986   96.311668
H   20.283533   79.883560   51.640453
