100
TIME:    7.364, STEP:  7364
H   19.325010   46.706642   92.404068
H   97.101639    3.907165   42.429226
H    6.351290    3.700058   36.898716
H   82.712631   29.254414   36.516682
H   29.211184   63.014416   66.036957
H   13.821050   93.230125    8.027382
H   67.021317   58.591396   66.327545
H   41.090416   25.681683   32.055794
H   72.606697   78.274765   36.549168
H   73.622658   22.121126   96.048134
H   15.273682   62.549091   30.412077
H   74.778824   92.810059   68.751534
H   74.171852   16.252644   93.292717
H   90.460320   82.377968   17.643322
H   70.049141   12.244041   96.768585
H    5.432293   67.646606   21.764666
H   31.938118   69.041046   43.762325
H   58.543507   36.506653   44.251945
H   59.958523   87.281754   51.324833
H   94.119675   49.428616   17.707926
H   27.286514   23.107674   57.369259
H   68.374191   53.859802   92.165680
H   87.422188   34.731285   21.657755
H   34.835945   24.923067   60.160080
H   66.205391    2.157120   90.924721
H   12.885433    9.011559   97.897072
H   27.072611   36.364021   46.082638
H   11.189170    0.166343   10.186316
H   71.293877   17.211794    9.072317
H   83.361984    8.580658   68.805504
H    5.874176   82.399536   26.762764
H   30.724606   49.050243   17.541664
H   89.067146   29.696615   61.204231
H   89.247902   98.856148   61.517548
H   97.685890    2.111917   73.084305
H   12.777769   62.208923   96.274544
H   86.102310   34.850708   88.719818
H   59.622887   24.186962   42.097923
H   34.235584   20.967379   30.685646
H   69.586159   22.790045   17.418310
H   31.973772    8.861196   15.837139
H   79.616081   70.481079   55.904125
H   74.661835    7.662346   33.383091
H    9.128193   36.246971    0.748857
H   17.883709   41.345676   86.267159
H   83.068871    3.373319   13.078314
H   99.265915   25.317837   96.150902
H   56.637081   71.216797   24.220104
H   80.286629   22.563793   50.722206
H   80.348389   42.818226   68.642403
H   42.995945   58.696945   31.053261
H   63.019024   80.414536   90.635895
H   61.625568   64.707703   75.179970
H    6.161232   87.052841   56.769058
H   54.462448    3.950170   62.985203
H    2.767612    4.787510   41.938858
H   63.095997   77.061226   56.365150
H   77.717209   81.448280   23.875856
H   71.057915   49.922802   46.151253
H   73.069908   93.809052   54.160912
H   24.227537   36.111649   40.240257
H   37.555183   59.399002   62.158318
H   74.003365    4.776540   28.498871
H   48.712955   81.877899   27.206486
H   24.611839   72.694641   81.346031
H   48.965210   76.187126   81.600998
H   96.740540    2.956097   22.596407
H   71.683861   38.692924   18.244385
H   23.922394   20.656250   98.374512
H   79.583778   18.519861   86.224670
H   88.191612   94.355225   73.815071
H   66.859001    7.085744   95.824959
H   26.844957   54.057941   72.938049
H   68.095085   83.351562   65.609680
H   17.202589   39.158283   59.645115
H   99.744118   79.536766    0.426306
H   35.591511   88.427437   21.342791
H   77.954437   69.207527   21.125246
H   14.644704   31.888332   99.838646
H   38.387070    7.867222   86.506081
H   54.977364    5.466317   20.119110
H   93.885597   92.227310   70.931221
H   83.664757   30.270178   31.253311
H   56.779919   42.312862   90.829857
H   93.764114   88.258873   33.895073
H   81.809006   79.547119   53.161758
H   58.979694   67.929680   74.687263
H   74.462395   15.798910   19.224686
H    8.506673   84.156792   67.962776
H   15.261956    6.299526   87.462128
H   25.387959   71.065224   88.975998
H   23.160326   49.322311   73.837852
H   57.500065   48.476757   88.474007
H   58.967690   59.938194   23.341974
H   29.274033   90.107040   85.303741
H    2.157784    4.936145   87.088600
H   78.082787   90.284729   13.678304
H   24.063097   50.829205   31.049967
H   57.909050   68.601738   28.225063
H   96.618401   89.662033   88.342682
