100
TIME:    1.052, STEP:  1052
H   46.179604   25.547462   98.182877
H   72.006935   61.784504   44.360043
H   97.839264   49.588879   10.987663
H   81.653183   89.306969   82.499992
H   85.748383   57.079964   37.180504
H   11.703239    0.068698   82.928886
H   97.835823   32.373753   72.720543
H   37.201172   79.613022   11.602310
H   27.767830   85.147812   33.867142
H   46.091042   31.488655   48.886543
H    2.400552    8.572026   38.415565
H   15.687450   76.422096   18.046488
H   76.343903   98.059746   20.568926
H    2.993074    1.833723   37.298038
H   93.296791   76.055634    0.202713
H   59.225708   19.720875   45.715317
H   39.487297   51.567429   69.137398
H   23.624954   43.541992   63.075485
H   61.645615   22.485537   18.786577
H   64.173088   83.474365   87.957512
H    1.849448   51.488083   28.691505
H   63.220448   45.488457   29.679424
H   71.698311   86.066368    2.250261
H   21.299362   49.298832   28.943802
H   91.958977    2.742977   44.324356
H   41.835285   96.263779   90.569107
H   71.364441   98.745804   20.841970
H   43.776054    5.543121    1.545820
H   34.045853   44.537418    7.444263
H   41.331097   64.802902   67.019585
H   57.484440   16.381842   26.165436
H   32.180973   23.447319    1.875182
H   44.459507   91.513329   92.569420
H   22.551537   77.313240   27.431650
H   54.622719   79.396950   88.788391
H   64.022247   67.124588   17.024549
H   80.699181   66.009621   91.358894
H   20.510544   39.699581   96.678902
H    3.425434   58.050896   41.297981
H   64.105782   13.698235   20.802885
H   63.347443   92.278908   67.129196
H   37.073418   59.073906   52.224812
H   20.302328   69.808472   77.459694
H   12.182261   30.401297   83.592781
H   65.401237   90.384659   46.131416
H   64.515312   82.982140   87.443886
H   47.188221   82.490463   36.612495
H   56.295597    6.214754   33.669704
H   95.782951   45.322083    2.508312
H   47.953594   46.761509   10.087318
H   43.464359   68.079704   64.508987
H   56.257896   66.122192    4.999060
H   30.701845   28.108582   41.771469
H   52.328793   90.040016   78.238724
H   57.011124   50.729298    9.333048
H   94.882523   11.426344   56.814240
H   62.942421   59.191994   56.041420
H   47.724304   77.539146   86.457840
H   73.245247   83.217773   30.720406
H   89.597839    8.647337   33.688194
H   26.061907   29.648689   32.373489
H   61.573608   18.153488   47.756142
H   45.589775   35.415474   61.386818
H   15.277800   47.517105   98.576485
H   74.079155   76.823174   93.531776
H   36.719185   89.975105    8.388046
H    3.164245   84.732697   17.852959
H    7.696952   77.701889   16.494284
H    9.332699   74.196320   94.252205
H   51.696342    1.054933   99.517914
H   88.625923   23.823156   49.530338
H   87.224869   16.611885   33.643829
H   38.399887   66.268440   34.773945
H    7.036376   82.807373   40.685112
H   12.893563   30.140570   81.146416
H   50.530590   74.996849   25.143742
H   62.470722   35.366325    9.648838
H   81.405197   81.933540   72.539139
H   11.976748   50.420750   29.418633
H   47.933517   51.660934   30.290344
H   31.468746   40.165081   42.863796
H   20.255173   51.097916   98.809402
H   84.359825   24.815485   30.097569
H   22.537649    2.182595   67.341469
H    1.105188   83.080994   45.772804
H   27.079266   47.697216   14.837500
H   37.415428   26.863960   73.706482
H   72.890289   21.068615   84.806221
H   77.514351   35.597954   19.593086
H   73.326492   65.995834   61.821484
H   67.074715   30.237146   55.678051
H   56.124302   74.626640   53.566429
H   52.782036   59.150513    0.300108
H   48.908119   77.045067   97.750023
H   38.404453   55.498665   40.259636
H   80.812454   54.188469   13.111931
H   79.099686   28.052382   76.687500
H   10.727736   25.194824   39.204285
H   58.597160   41.385052   56.929302
H    4.574203   51.682735   96.362984
