100
TIME:    3.573, STEP:  3573
H   75.694977   94.359100   95.874832
H    1.880092   98.466400    3.383752
H   41.171371   30.959412   81.399956
H   82.076324   85.442009   44.315189
H   63.168015   59.149212   68.825989
H   72.617073   97.337196   32.591934
H   65.707710    2.602738   69.866188
H   39.055542   97.712509   80.133217
H   65.796776   42.764069   75.180138
H   77.200386   67.686348   47.605965
H   67.903275   10.009901   95.580254
H   19.468468    2.786829   38.598549
H   15.984208   45.535995   70.001152
H   78.167061   94.062874   29.146961
H   23.962345   50.872391   79.022224
H   57.862045   99.221306   36.451515
H   36.787819   18.297482   98.652634
H   77.493736   20.945854   75.674011
H    0.919413   28.244951   51.600628
H   96.257713   29.939711   59.599083
H   52.249832    0.513162   60.263092
H    4.927338   48.827194   15.004288
H   38.039330   65.563240   30.123466
H   87.071068   79.534210   41.711750
H    1.793868    2.801697   62.927223
H   30.274393   21.146517   54.272972
H   53.975704   93.951187   70.866188
H   31.062803   23.215256   84.876122
H   88.861908   73.262558   88.275154
H   37.997253    2.407720   67.431854
H   56.676884   42.453213   26.694557
H   91.358711   53.791313   68.493553
H   22.034426    7.064971   19.681013
H   29.069698   46.278572   21.226013
H   91.955383   88.828606   42.298523
H   83.216835   65.164276    8.353494
H   22.496532   73.684555   90.003838
H   16.314201   93.560997   74.577477
H   94.254181    3.569006   98.062386
H   26.657104   77.691376   19.150080
H   91.062958   78.781219   26.524031
H   10.500298   72.217758   70.663879
H   42.017178   84.926163   59.554142
H   51.198563   72.653442   30.083261
H   46.724018   90.919586   61.862118
H   31.991032   31.066303   97.676033
H   69.648727   19.149757   59.762360
H   56.430233   32.170700   89.654945
H   69.470016   36.533470    1.944533
H    0.813938   85.122154   33.763950
H   43.272022   24.693634   91.089966
H   78.774078   32.191216   39.501537
H   82.991295   42.726196   95.354774
H   93.952507   48.911301   89.483734
H   56.305832   71.714050   30.736586
H   98.036850    8.775976   70.993454
H   22.764879   86.449135   95.809380
H   60.003166   39.462143   21.523304
H   72.070946   89.736237   37.181911
H   23.238052    2.419745   61.985970
H   85.087990   12.411826   35.816463
H   72.101860   94.685104   33.687622
H   16.630850   63.468071   88.459129
H   88.391045   61.230736   30.133450
H   74.142250   75.475014   28.307379
H   81.850197   64.648415   57.447449
H    0.899564   71.888580   39.567364
H   33.554344   21.881117   37.012661
H   34.980225   93.053345   36.140446
H    2.775845   27.853716   94.209412
H    8.572880   52.293083   19.287693
H   79.356552   32.944351   18.219662
H   74.025085   41.570438   70.138420
H   51.557903   23.272499   90.859001
H   34.440479   33.732288   72.255531
H   10.123645   36.568352   55.511036
H   91.360115   16.862377   54.239643
H   99.846359   17.090406   11.762394
H   32.850990   43.023701   57.548759
H   24.298805   14.360020   13.103992
H   80.796646   66.245987   93.539062
H    9.410102   67.561966   88.005127
H   43.862659   66.897186   70.210510
H   95.967163   17.908253   37.078331
H   78.353638   25.391026    1.390238
H   69.061768   40.296738   89.903061
H    5.787329   43.566719   93.917648
H   13.470213   19.231125   58.584763
H   29.834427   95.233742   98.968269
H   50.437824   62.274780   51.942253
H   70.244476   66.361763    8.917031
H   42.660049   64.214409    1.607825
H   14.490552   34.724968   95.310020
H   92.571449   29.961121   67.726418
H   94.814232   29.682041   98.191551
H   89.036713   54.637154   82.898720
H   78.994568   72.727791   31.703386
H   19.981886   46.659637   98.864922
H   38.503838   52.252094   45.761192
H   61.142284   86.944557   53.541954
