100
TIME:    1.905, STEP:  1905
H   88.495270   47.323074   97.401932
H   48.279228    8.030466   98.167137
H   12.500074   10.957564    0.972743
H   81.796356   54.164452   35.743496
H   78.108139   25.451664   14.052597
H   98.475960   99.144264   67.405083
H   53.128315   89.972008   39.426338
H   70.157051   53.407887   33.283279
H    6.799461    3.135338   80.174538
H   22.781126   43.736336   82.287895
H   23.056564   42.894199   56.249561
H   83.131973   19.178225   57.328911
H   22.085686   46.452309   35.787560
H   60.757088   99.204109    2.210457
H    3.671335   99.865295   59.202316
H   24.929214   45.111259   74.909927
H   70.908310    7.977699   46.799736
H   41.853508    2.060357   33.503708
H   74.933540   58.272331   63.723446
H   41.193672   65.356552   46.033882
H   51.231232   66.569458    5.539745
H   45.011723   46.614319   57.048546
H   60.309532   79.128975   77.845581
H   42.046394   59.529209   65.593521
H   61.450066   35.090164   50.617470
H   37.924053   70.844025   10.616960
H   97.808189   63.290775   37.768948
H   71.802841   45.358669   29.741030
H   52.593292   21.928442   67.121941
H   74.039665   43.691360   34.830166
H   91.039040   92.876053   58.667477
H   86.040131   99.881447   22.908653
H    4.542677   29.102974   69.414398
H   58.592140   99.140976   91.497070
H   33.420067   14.916911   40.729149
H   38.187359   34.131489   14.090970
H   62.512390   34.771828   58.571842
H   85.253944   24.087193   56.870914
H   65.080643   39.841866   59.542686
H   83.763481   33.843327   87.915726
H    5.056419   21.548716   87.225510
H   60.410645   97.354057   92.300293
H   27.649717   74.923660   39.073486
H   57.711967   44.698730   66.993942
H   91.410957   56.727345   19.126177
H   53.510410   99.251747   90.905891
H   56.195118   28.504732   43.901314
H   56.341152   14.997129   86.448555
H   20.715933   74.676720   68.484818
H   65.843071   59.744717   50.425640
H   43.399281   85.727821   73.502869
H   97.713051   86.969406   49.003033
H   48.396751   33.054565   92.230125
H   32.577396   76.126183   15.878927
H   89.102859   25.507109   16.571302
H   95.949814   10.529884   27.776108
H   17.021151   34.579216   37.168877
H   84.206879   96.983521   64.487259
H   40.519753   19.259436   65.236649
H   33.308285   74.213150    9.427283
H   79.869370   89.980904   65.865807
H   31.299057   10.212696    9.158233
H    3.447107   77.246422    2.867662
H   73.853149   52.157219   75.421471
H    7.934015    8.694409   72.970810
H   84.318184   47.569801   58.823818
H   34.727310   14.224236   59.035900
H   48.774452   26.486572   57.272617
H   51.848381   12.905167   40.754654
H   68.976624   43.959435   97.721741
H   61.540154   65.784599   39.299961
H   16.891432   88.301712   96.096550
H   82.781815   24.077549   12.900982
H   88.265770   28.827021   89.988747
H   54.018204   31.354288   45.810162
H   70.696327   29.664865   67.746086
H   39.916618   61.435303   24.739603
H   21.480694   26.156988   19.645390
H   52.865715   47.921726   38.932259
H    6.100558    5.203104   56.803719
H   48.161442   48.989758   93.846474
H   84.257446   56.668655   27.482901
H   38.332157   39.053070   11.341650
H   81.217232   75.174904   89.429199
H   59.571884   29.725266   63.084061
H    7.445035   79.029503   74.072197
H   94.385353   64.843903   14.381144
H   86.621902   52.775620   75.938820
H   95.215767   88.105171   12.614182
H   97.910385   30.898506   92.317375
H    1.982983   76.295227   73.691849
H   19.237993   38.779644   69.818916
H    7.512829   84.712204   66.291122
H   31.353268   28.784571   55.262062
H   23.655769   79.091583   59.861351
H   51.266785   20.504827   69.053177
H   11.392650   77.004601   27.631149
H   13.859651   32.457611   25.555737
H   17.963123   45.062000   85.477951
H   57.548294   29.771057   14.206919
