100
TIME:    5.428, STEP:  5428
H   50.248695   24.246304   94.176529
H   50.566658   98.997955   20.357887
H   73.061035   64.416016   59.630527
H   82.387680    9.016235   42.636070
H   46.552948    7.835560   18.529804
H   43.849224   95.327538   16.299078
H   68.487282   27.862041   14.929749
H   93.256195   58.191967    9.812343
H   20.197334   64.413315   58.414810
H   26.506804   94.321404   20.243711
H   95.355698   84.650040   16.897408
H   48.670601   95.768425    6.558450
H   97.695053   33.349129   85.668388
H   86.319038   88.345253   70.314140
H   46.523994   85.176834   89.853180
H   83.275330   36.976395   82.469452
H   87.619576   40.990330   67.520599
H   17.141775   30.710526   11.363550
H   29.811378    6.063012   49.329151
H   46.276009   90.544472   85.896126
H   42.171501   15.842407    9.919449
H   82.767990   51.289734   57.033936
H   13.272017   50.476646   77.048538
H   14.718174    1.762911    3.942110
H   35.446930   55.693092   76.626869
H   21.802435   66.195251   79.992798
H   94.016205   16.840958    7.665334
H   74.542336    9.800377   46.194603
H   29.197929   41.562351    0.588492
H    9.127352   56.496758   14.899090
H   29.680653    8.795205   79.932854
H    8.484484    2.544272   96.766930
H   52.698963   71.344093   86.794060
H    7.447000   76.278954   43.077538
H   45.846451   48.604965   55.254364
H   44.484104   10.572733    2.361181
H    0.415264    5.749691   36.170391
H   39.642597   59.621410    5.481245
H   15.953719   63.150017   18.298727
H   51.936001    4.031643   65.099327
H   64.286301   42.430038   70.227028
H   43.782768   55.470566   57.807667
H   57.995380   96.050049   93.544411
H   32.747463    3.751611   11.457446
H   85.816719   17.731667   20.599203
H    8.057707   66.447617    5.213019
H   84.140915   20.031158   77.569603
H   56.529301   51.276611    4.431809
H   23.696564   82.902771   27.948357
H   39.719234   13.348982    4.023681
H   43.130497   45.605362   10.646836
H   68.923164   60.062420   17.723320
H   21.464558   53.482117   87.619408
H   50.989723   18.639046   71.339195
H    8.609230   34.288746   46.516087
H    0.356272    6.823994    7.844879
H   40.363037   32.924278   72.235390
H   21.875412   64.280067   73.742294
H   18.372000   68.115440   94.772423
H    0.827789   45.002796    9.225349
H    2.102604   26.145283   91.186638
H    6.267026   77.419022   49.755592
H   42.567501   36.886520   61.256195
H   15.770186   71.331757   79.770294
H   47.769981   27.318405    1.054630
H   67.895378   72.431145   67.129051
H   52.070099   36.022747   29.126740
H    5.416631   27.970896   25.692389
H   27.432676   59.764870   19.797356
H   40.356277   21.154411   90.303314
H   49.669548   26.079498   97.034309
H   26.404007   71.380157   54.035355
H   53.075806   49.814056   22.573601
H   10.719143    5.881364   80.640465
H   23.877405   36.378811   12.877106
H   53.981850   55.457657   30.694304
H   59.783024   56.083965   87.045204
H   86.997635   95.796471   14.207026
H   21.805866   37.574978   78.244164
H   33.327873   13.329593   53.294159
H   17.089197   85.436813    4.408225
H   48.597466   79.672241   32.888992
H   61.209312   97.894714   46.879444
H   23.588018   76.644699   67.652191
H   88.030205    9.359509   21.568550
H   26.365269    8.432799   18.720184
H   29.678579    8.693096   82.371460
H   43.326164   70.720398   39.297806
H   68.329697   91.950279   83.796761
H   86.430573   85.952805   18.255827
H   46.158806   66.526459   48.091228
H   79.915932    3.717136   36.951958
H   33.398621   90.386848   38.760151
H   71.862556   42.483593   92.800911
H   62.744606   63.523510   40.814976
H   42.252151   81.386139   87.085526
H   31.752844   79.182564   25.020065
H   26.789251   62.453857   69.172920
H   50.135620   60.248272   90.384773
H   76.364319   39.342793   74.844742
