100
TIME:    3.351, STEP:  3351
H   90.708160   14.717457   96.078079
H    8.055630   86.430786   89.380112
H   37.355408   14.988425   84.004906
H   82.039062   94.588127   56.484608
H   65.156448   41.354931   74.845490
H   76.058723   97.577705   10.606405
H   77.343605   87.613014   52.505501
H   56.504303   78.505661    0.515547
H   71.253960   64.108398   89.153374
H   83.267311   64.498756   38.912071
H   88.553177    1.077481   16.964540
H   27.942177   91.659149   54.401009
H   30.105644   58.967239   92.067009
H   89.159340   94.747139   12.252048
H   21.261700   70.702530   89.692696
H   66.787979   18.638519   54.879250
H   54.639687    3.614220   78.443100
H   72.751305   31.741661   83.370300
H   97.461098   18.931154   39.905453
H    2.239311   34.653721   44.484276
H   65.423630   22.614532   66.288315
H   83.643982   48.532486   33.909653
H   41.003349   67.368752   36.475189
H    7.697339   76.871674   58.200169
H    9.733602   20.407974   61.287697
H   31.293169   27.761362   75.081291
H   73.119080    3.178996   66.462502
H   49.793758   12.853043   77.538902
H   84.034790   53.120773   98.769478
H   29.484840    7.902589   49.783234
H   47.938953   22.546453   44.258492
H   77.341438   59.924294   89.045219
H    6.396845   23.306965   99.681496
H   19.688999   66.623604   30.577919
H   97.473541    5.610181   28.780899
H   63.911755   47.724094    9.119905
H    1.203930   81.814438   72.511040
H   25.489113   97.622551   58.911068
H    3.624404    8.405439   19.575380
H   47.566364   98.473389    1.683534
H    6.235085   71.162842   21.293806
H   30.452385   62.254967   60.233917
H   40.104961   83.594894   43.519642
H   65.375046   68.934021    8.377322
H   65.980156   99.679535   42.865292
H   34.855122   26.831989   96.774971
H   67.914352    7.076052   57.629959
H   56.418377   29.884954   75.918831
H   62.979927   54.918861   10.800576
H   96.159294   81.744865   49.290333
H   43.288960   46.126328   88.749237
H   67.985046   52.792000   54.076046
H   78.387749   41.438965    8.247982
H   99.094658   52.534180   79.687225
H   73.981552   52.257553   28.848928
H   97.759079    9.009710   78.550858
H    8.691493   92.854805   74.695396
H   76.533928   60.427078   27.242168
H   54.562126   80.356384   54.225872
H   37.887085   85.356918   68.300179
H   71.084267   22.735783   53.124645
H   79.981071   96.751450   43.733109
H    1.559215   78.616753    3.682355
H   73.147514   60.023109   36.161419
H   65.331490   93.204933    7.632916
H   95.488075   75.684731   44.321075
H   18.711563   64.212616   28.849218
H   48.889336    9.184104   26.399778
H   23.915115    9.004829   50.064564
H   98.277893   16.687830   94.676880
H   15.622589   67.397728   21.951077
H   97.662338   40.312057    1.965810
H   88.499664   52.550861   75.829338
H   56.445995   37.321426    4.049761
H   23.737173   33.415562   55.426670
H    4.875087   22.339937   70.448730
H   71.204781   36.104126   50.313587
H   89.416397   31.606482   99.501892
H   22.205923   43.675785   55.070839
H   35.186073   26.450680   32.229477
H   76.453934   63.949291   80.270416
H   92.753265   66.112137    6.568640
H   29.816595   63.191315   49.066044
H   80.693146   98.910980   57.353920
H   89.162994   39.277882   22.910439
H   74.170044   32.141449   74.486771
H   90.960426   59.707924   83.331863
H    9.897299   37.005081   60.893311
H   25.226646    7.594257    0.784202
H   70.065887   71.407669   44.007149
H   61.159332   54.374935    4.228799
H   26.232901   47.519379   97.377113
H    0.260321   28.063543   78.142418
H   71.115334   16.495155   52.758545
H   98.652214   49.568073   93.090050
H   70.700439   63.403877   94.365242
H   96.616089   59.987591   44.470711
H   19.167204   44.769440    2.417517
H   49.079460   51.295139   64.356575
H   47.353664   92.642250   74.927765
