100
TIME:    2.616, STEP:  2616
H   40.412506   82.120842   96.750992
H   28.501503   46.580696   43.016438
H   24.721472   62.109482   92.629402
H   81.915695   24.871492   96.770691
H   71.739777   82.441452   94.774918
H   87.453377   98.373985   37.817066
H   15.866259   37.982773   95.027458
H   14.273857   14.919725   68.002419
H   89.321663   34.775742   35.418949
H    3.353281   53.945244   10.128238
H   56.921082   71.503006   87.763031
H   55.997025   54.817184    6.719669
H   76.857903    3.435635   65.118950
H   25.552086   97.012611   56.319828
H   12.320374   36.355255   25.023100
H   96.340057   82.924103   15.890631
H   13.744090   54.997650   11.533151
H   57.047531   67.484535    8.852234
H   86.010368   88.097275    1.184841
H   22.039764   50.259686   94.442116
H    9.039474   95.785736   86.240173
H   13.178818   47.556763   96.501740
H   50.816658   73.346458   57.503708
H   75.986755   68.056519   12.786262
H   36.020012   78.700439   55.862961
H   34.663929   49.659603   43.973778
H   36.498062   33.732677   51.878071
H   11.811781   78.545753   53.244274
H   68.053116   86.436165   33.511742
H    1.303123   26.094284   91.353447
H   19.010580   56.636585    2.409354
H   30.932899   80.233910   57.087837
H   54.625904   77.083443   33.466896
H   88.633018   33.981888   61.542984
H   15.744573   61.170593   84.024590
H    0.004959   89.985039   11.647233
H   30.707775    8.731806   14.595735
H   55.865509   11.073818    7.046100
H   34.650818   24.417955   90.802689
H   16.795820   67.282936   43.855869
H   56.465160   45.943851    3.977225
H   96.509972   29.265427   25.702799
H   33.773975   79.187317   90.430016
H   12.310083   56.616356   36.512726
H   29.737314   28.677258   79.968971
H   44.337582   12.812977   93.791725
H   62.170383   67.104645   50.569984
H   56.379124   22.317492   30.441154
H   41.497192   15.792797   40.120964
H   80.749596   70.563301    0.699176
H   43.345036   17.085615   80.999527
H   32.264606   20.993561    2.325284
H   63.145966   37.177185   50.937119
H   16.114040   64.528603   47.252838
H   32.500610   87.837677   22.603346
H   96.839432    9.782660    3.571991
H   62.093319   14.063630    4.790768
H   31.263763   29.838978   46.174149
H   96.595955   49.301464   10.651094
H   86.389847   28.862417   89.205330
H   24.720148   56.914318   10.432530
H    6.066998    3.593451   76.989624
H   51.675076   28.762064   54.090500
H   22.674994   56.024887   56.118885
H   36.155376   51.909061   39.184151
H   40.640114   12.223763    0.863659
H   77.681770   38.804508   93.362137
H   99.660591   67.148987   91.262527
H   87.283073   61.817253   96.160774
H   83.384094   79.720772   96.224579
H   38.963387   17.406904   30.769035
H   58.265121   64.705139   48.153473
H   36.424042   88.908806   94.670891
H   72.621513   83.834122   47.731895
H   88.299461   32.366940   99.707993
H   87.501427   75.234612   19.906315
H    4.470401   99.808975   37.315159
H   54.884762   79.667412   58.913342
H   86.959534   45.834713   46.866913
H   71.231758   66.482635   95.550552
H   62.075283   56.345379   36.340443
H   37.605392   61.312027   68.029152
H   83.315201   50.921875   79.061005
H   30.127522   36.016083   24.487091
H   24.952175   85.252045   94.160667
H   91.082581    5.143620   23.446346
H   41.871452   13.148422   48.284332
H   98.067596   95.851288   68.539803
H    9.971710   48.517174    6.797622
H   35.048786    1.644180   17.733997
H   31.080139   14.688691   88.706863
H   71.848587   92.246391   83.369316
H   53.131413    6.018541   21.296204
H    0.073402   71.913567    3.202580
H   11.361141   15.403816   76.199944
H    9.992507   92.428841   32.329315
H   54.956436   17.807186   86.740837
H   16.469946   38.511353   14.178066
H   84.093346   48.126842   25.920418
H    1.703733   11.509146   45.727692
