200
TIME:    0.657, STEP:   657
H   22.284678   61.091061   22.470018
H   31.681023   38.965885    6.825949
H    9.397734   87.390175   65.887688
H   31.898981   81.847755   33.595249
H   10.782747   94.298050   47.663044
H   76.052856   41.496960   53.206768
H    9.400809   55.008255   57.722721
H   12.233363    6.892848   10.270754
H    4.363118   81.254662   37.546707
H   96.182037   69.057732   79.624321
H   26.728270    3.502080    6.139260
H   32.502151   53.153172   32.611362
H   21.408924    0.847306   44.200890
H   84.694199   54.966282   62.359890
H   99.489090   75.154678   41.952572
H   17.145630    8.784904   45.327435
H    3.823986   27.248671   95.185860
H   26.660322    3.213589   36.096436
H   78.899757   14.605142   48.622456
H   91.382919   73.978050   21.305737
H   63.089508   97.574532    6.736014
H   80.745537   64.753471   54.505150
H   82.517990   59.509529   39.130524
H   17.440752   91.861023   90.278503
H   21.371452   29.475100   30.530674
H   18.315905   80.842674   93.184021
H    6.971192   67.163994   65.848145
H    4.080477   87.331573    1.828520
H   28.631828   43.854805   35.896595
H   74.205650   31.935238   84.201172
H   12.817065   68.870918   16.704641
H   24.343048   73.279770    3.869878
H   17.047623   17.958355   78.272667
H   82.625389   64.032867   45.579018
H   27.976910   72.570236   31.046936
H   19.439846   40.414165   84.258209
H   98.233109   65.428658   89.085487
H   12.288614   55.542046   96.418449
H   37.637001   31.468473   53.700809
H   86.083656   37.973682   47.407318
H   80.628387   85.743919   15.365517
H   34.095139   34.362652   27.466112
H   69.193619   78.202560   65.812439
H   36.352280   83.487053   33.662125
H   43.024982   89.017799   59.412209
H   35.191593    2.986139   47.223045
H   87.832352    5.782274    5.321699
H   79.963791   65.544243   32.656631
H    3.207215   12.927670   61.466980
H   47.194771   19.683336   88.070915
H   68.288452   65.218079   11.342764
H    5.197694   42.875347   72.507072
H   63.423504   82.495728   13.378461
H   16.200365   90.983612   87.878372
H   59.548172   67.110985   77.287155
H   99.960014   62.076832   92.303040
H    4.240420   18.323463   45.181461
H   71.964523   68.273293   97.776802
H   19.382046   82.532913   17.212055
H   33.458702   93.647621   59.285561
H   49.068989    7.240623   30.052984
H   97.431053   17.412725   52.262894
H   82.935555   33.844749   70.816513
H   34.229729   65.747269   12.977947
H   78.051704   82.295639   34.981556
H   22.381767   32.761864   40.358810
H   70.598732   14.365978   94.450508
H   95.006233   92.398003   95.527435
H   31.355236   11.488404   56.701767
H   42.836555   48.898026   50.960323
H   58.282230   83.804497   84.435532
H   20.420805   12.861031   41.845840
H   90.728653   32.872280   85.532341
H   21.450745   99.798752   72.712624
H   84.222641    7.621838   48.005394
H   63.853928    4.354673   60.152554
H   93.665054   45.474117   66.247154
H   11.110187   13.563282   33.708244
H   14.700882   48.271645   25.702686
H   61.992203   88.341301   74.485687
H   61.066547   23.054325   94.942764
H   44.972557   61.090935   74.965965
H    9.372795   18.240440   78.078827
H   11.075722   75.495323    7.442414
H   24.058765    3.733442   45.964672
H   36.415241   71.184158   19.102215
H   54.544689    3.653045    2.727340
H   71.863701    3.024072   27.170519
H   78.449387   73.072182   78.672546
H   21.355503    4.738519   50.277843
H   23.762678   38.492615   78.899696
H   81.150757   92.194138    7.466660
H   67.069283   12.159109   83.853447
H   41.328850   79.452164   80.554733
H   35.691040   51.285477   85.307358
H   52.003120   37.032558    9.455262
H   84.962227   99.855934   16.288269
H   95.431427   34.918186   52.541759
H   27.568977   65.600777   54.359035
H   74.454971    4.703188   27.352213
H   28.471281   91.955994   88.575752
H    6.078268   82.965401   63.564407
H   31.823416   21.930244   36.329887
H   41.913124   68.709396    6.722196
H   24.785961   21.992672   38.607140
H    3.931916    6.356674   24.367443
H   85.411972   35.274605   54.318542
H   62.294006   50.285061    2.616911
H   83.393997   34.825932   19.296665
H   17.762259   22.246275    7.578169
H   52.680965   92.443100    1.089241
H    2.737790   73.831482   95.261078
H   49.851452   85.113655   84.865036
H   61.811607   10.407343   64.200653
H   49.934563   99.332962   12.151371
H   97.020569   93.598869   97.746346
H   15.430052   14.314487   89.041367
H   38.655445   47.521652   25.643089
H   34.698704   73.369560   62.930260
H   81.787292   54.997555   64.898590
H   44.906807   24.530483   73.855469
H    0.296449   17.601604   60.454273
H   42.289803    4.235204   36.399734
H   97.933601   52.313129   99.604149
H   64.438698   98.627457   79.021515
H   62.999706   73.761368   17.479912
H   85.021446   51.136978   54.950226
H   66.307434   90.840508   38.524448
H   97.599411   37.389244   75.387253
H   87.956993   22.172865   73.605804
H   65.442047   70.296478   19.347263
H   65.694092   90.187271   19.160870
H   91.076088    2.882775    0.477231
H   80.473335   23.694427   54.839375
H   25.026211   93.830093   37.254967
H   51.251610    1.091670   77.538208
H   69.583092   87.627129   76.097672
H   94.775215   51.200836   76.609573
H   57.212906   50.165245   71.451462
H   43.673828   89.090736   83.870621
H   71.262138   50.805737   28.380203
H   38.041382   53.680981   55.967834
H   41.600430   64.436165   85.319023
H   38.605247   11.433002   85.034554
H   59.902897   55.937279   62.704273
H   61.219082   69.159912    9.874569
H   54.593773   94.951637   44.296097
H   31.266006   57.896362   66.432518
H   76.333099   47.381824   93.799019
H   22.754709   93.227463   74.391884
H   61.522160   68.391876   48.196144
H   51.341061   95.571136   35.084492
H   95.547646   16.246265   88.826363
H   20.933065   10.714416   65.647781
H   30.148163   64.891785   68.297134
H   75.881149   44.562878   66.890541
H   63.676220   73.389503   85.693405
H   51.974712   29.969292   19.493593
H   93.296417    0.163100   87.140045
H   59.004524   39.929382   94.243805
H   58.052074   67.468124   72.328506
H   24.025093   20.895296   31.931431
H   83.169136   16.388823   37.058662
H   26.581345   32.429863   53.358128
H   54.961456   36.237896   13.921865
H   19.098223   51.171028   60.022308
H   67.719284   90.822273   56.642334
H   23.996490   49.905186   65.256210
H   99.739136   26.814114   35.872272
H   45.502842    7.312855   85.707520
H   71.398621   10.592916   35.941078
H   31.757286   49.958332   58.738651
H   45.729984   59.535873   78.690811
H   66.091064   64.563782   83.914085
H   52.056427   91.899628   79.624100
H   13.781962   49.913322   23.686813
H   31.133911   65.947868    4.351520
H    5.425800    9.598541   70.212326
H   64.937325   11.685486   64.257668
H   66.464142   58.928230   92.267517
H   73.804588    0.132728   32.023808
H   27.638645   30.615078   84.839439
H   46.434921   89.727730   14.328362
H   60.562107   25.991989   92.531273
H   90.915535   70.247795   76.678848
H    7.990164   39.742462   86.041237
H   45.872162   97.381866    8.504875
H   70.387413   84.888008   40.117947
H   94.542000   63.032967   71.309235
H   57.196575   56.004932   70.971512
H   67.740669   17.227955   76.323616
H   44.234440   96.261551   19.312944
H   13.362970   27.444605   67.359100
H   27.818485   80.173332   41.717102
H   70.584412   35.629494   20.452234
H   76.346207   11.406682   23.853270
H   12.233125   96.929939   17.541548
H   16.790524   89.118484   35.206455
H    6.352520   12.778694   59.367363
H    3.658477   20.864851   91.955360
