100
TIME:    4.192, STEP:  4192
H   33.833893   37.593506   95.308121
H   84.703011   32.022079   42.425003
H   51.811378   75.493431   74.136604
H   82.180222   59.939995   10.384652
H   57.623688    8.764789   52.041885
H   63.020275   96.666588   93.893639
H   33.267956   44.402126   18.272867
H   90.403358   51.262508   23.298122
H   50.580574   83.249619   36.215359
H   60.284050   76.574272   71.845520
H   10.325394   34.916584   35.954990
H   95.842186   33.813774   94.538368
H   76.566971    8.091270    8.483963
H   47.517418   92.154945   76.253616
H   31.492523   95.581360   49.267536
H   32.973969   45.081474   85.068298
H   87.011360   59.237659   55.002647
H   90.717003   90.843559   54.212383
H   10.560173   54.214500   84.213074
H   79.577507   16.794367    1.743504
H   15.517487   38.890774   43.464821
H   64.271469   49.648926   62.290756
H   29.774788   60.528954   12.411613
H   29.559303   86.958130   95.738052
H   79.654449   53.713776   67.498695
H   27.436819    2.727444   96.222176
H    0.597586   68.222488   83.144936
H   78.832672   52.108093    5.335326
H    2.321460   29.422741   59.013954
H   61.733017   87.087456   16.640575
H   81.037453   97.960762   77.721245
H   30.442518   36.690796   11.189583
H   65.637428   61.775566   75.445419
H   55.223694   89.551025   95.149620
H   76.569168   42.037132   79.991562
H   37.040699   13.764643    6.249351
H   81.866074   51.016098   38.778431
H   90.729469   82.236214   18.259838
H   68.128784   90.081902   38.075981
H   68.353050   19.742023   67.853210
H   48.757950    0.023453   41.107403
H   54.868057   99.996063   99.745621
H   47.348988   88.638123    4.266924
H   11.671656   83.024261   90.606323
H   93.030815   66.494324   14.831409
H   24.005123   42.872791    0.188744
H   74.484665   52.813316   65.706749
H   56.463291   38.546204   27.955101
H   87.567001   85.268280   77.254547
H   13.796351   94.539009   90.470802
H   43.224796   64.932961   97.616592
H    8.856318   74.753601   98.863831
H   95.827309   46.315369   59.405773
H   79.614708   38.809669   16.797787
H    7.021032   25.964983   36.001713
H   98.811356    8.124258   49.921234
H   62.004925   68.588280   54.681557
H   13.910691   81.004814    5.578234
H   20.891127   15.890856   89.661049
H   82.389832   49.999889   44.380135
H   24.135389   83.624413   87.554665
H   50.132347   88.923538    5.678297
H   58.656361   21.228577   46.012444
H   30.896204   64.598785   13.325733
H   98.709190   26.035545   85.951530
H   43.823860   33.875984   94.047562
H   51.236710   93.291382   69.451950
H   90.795525   57.282364   66.604439
H   65.832657   48.575943   97.316772
H   15.316668   58.989471   92.905975
H   88.916924   10.175919   11.861412
H   28.317875   12.400855   63.541691
H   33.665787   10.953854   54.267601
H   37.928493   84.101768   54.079430
H   64.282600   34.615414   19.180105
H   24.758493   76.241417   13.861500
H   47.561714   63.212864   65.186623
H   28.928112   76.616676   45.949112
H   62.532501   41.205502   64.457603
H   93.941498   80.649101   59.776665
H   92.905380   72.649826   30.534407
H   55.856659   71.604507   36.245483
H   83.024849   77.230225   29.167309
H   38.553024   70.877510   80.542252
H   48.214035   86.672554   41.384964
H   54.815372   63.036034   32.888535
H   47.128929   98.560364   23.434385
H   23.432528   69.672615   52.147865
H   42.680283   60.768242   93.905647
H   95.709091   36.805824   74.069763
H   95.576477   99.788292   21.989176
H   88.461975   10.761150   13.403414
H   54.168800   53.298935   43.178326
H   52.401165   67.509903    9.464067
H   84.112831   74.236320   12.414973
H   40.163620   30.193176   50.926750
H   29.860790    8.250880   96.102890
H   22.253454   51.930054   88.956917
H    9.015953   54.920361   93.912376
H   99.593300   71.057747   93.911179
