100
TIME:    2.937, STEP:  2937
H   18.705006   52.683434   96.457108
H   19.572319   63.985992   63.265064
H   30.239149   85.203888   88.862785
H   81.969574   11.645475   79.176819
H   68.864609    8.171002   86.071045
H   82.476936   98.026222   69.607567
H   99.042976   59.659187   20.130165
H   89.043884   42.689365   38.528606
H   81.430870    3.912755   15.212950
H   94.581306   58.554329   22.699137
H   27.062439   84.419220   56.842075
H   43.744499   70.907349   83.870461
H   56.438751   84.014694   33.215279
H    9.658090   96.023201   80.747276
H   16.225361    7.682811    9.592696
H   83.433640   54.848358   89.244484
H   87.931007   76.229752   40.755047
H   63.907280   51.874382   97.722839
H   91.011299    1.562326   18.095530
H   13.392220   43.444019   16.297205
H   89.990982   63.830704   77.526505
H   43.953400   47.982895   69.165604
H   46.530846   70.735786   48.319824
H   46.162399   71.906403   88.946281
H   24.539730   53.241302   58.231178
H   33.192059   40.096119   13.886681
H    8.817638   20.388948   58.248013
H   84.726250   93.528954   63.855946
H   75.032867   15.559751   18.338621
H   13.611331   18.149612   16.871666
H   31.643930   85.421921   77.012856
H   51.201118   71.363503   27.371239
H   77.236420   53.597191   62.385109
H    2.195885    4.564274   48.019409
H    7.764993   36.905548    3.572357
H   27.915375   15.201120   10.543942
H   61.494652   96.975571   39.889339
H   42.599083    5.198728   29.697460
H   21.100304   17.424734   59.695038
H   86.560730   37.231087   69.112282
H   34.528133   56.957165   11.540505
H   67.660332   43.673103   40.783447
H   36.538937   81.112259   13.616509
H   91.812271   61.996887   67.897423
H    1.893004   16.013294    7.437683
H   40.196262   18.935566   95.094612
H   64.679977   84.561371   53.653320
H   56.396267   25.622465   50.302834
H   50.879448   89.207451   27.315405
H   87.479546   75.446678   78.246490
H   43.320545   86.094864   84.384094
H   47.864964   91.207443   81.253532
H   69.802757   39.038452   32.292610
H    8.681217   59.290359   61.418060
H    6.944294   15.975066   25.328703
H   97.241074    9.445305   92.644394
H   82.444572    4.800765   35.320671
H    7.361398   99.523849   37.906204
H   21.911995   62.864223   86.008369
H   65.205688   53.536449   80.075325
H   44.969215   41.987446   85.404160
H   94.674736    0.605020   62.466583
H   73.454170    6.867195   32.071579
H   44.718246   57.771049   47.402767
H   48.897709   26.270382   69.079109
H   20.920479   96.265968   19.842949
H   51.927711   49.901089    8.860213
H   77.487022   85.506958    6.608184
H    3.280585   38.752235   76.029701
H   89.888733   95.864815   95.548645
H   28.770111   95.565849   26.917927
H   31.798384   54.051834   71.656067
H   15.493616   73.029259   86.442131
H   65.558495   63.521759   28.653908
H    3.776994   32.824909   24.042725
H   95.088539   95.806511   98.307312
H   33.615253   71.987930   42.992023
H   69.965927   58.678555   76.640167
H    2.353868   44.891834   50.449852
H   55.489357   48.999317   67.896042
H   68.355362   59.666271   55.526188
H   61.691658   63.408401   41.187721
H    3.622951   56.280365    9.634592
H   52.210476   63.484467   95.167755
H    9.321467   65.174850   63.043221
H   83.696289   16.934502   45.737469
H   63.310310   89.809090   63.590805
H    3.234297   70.151108   65.199318
H   16.633759   30.644205    4.171337
H    6.667805   88.438675   29.208954
H   44.216766   32.021740   95.485794
H   95.599335   16.385363   89.487007
H   73.722031   15.640867   46.127159
H   31.099979   91.383400   24.845863
H    5.810523   86.650909   83.576439
H   36.505768   79.752632   15.749334
H   29.476791   36.228832   68.280006
H   17.647932   41.244476    9.041826
H   68.801567   49.510548   99.032280
H   21.639750    3.266821   14.808736
