100
TIME:    8.649, STEP:  8649
H   32.425041   28.866518   91.227615
H   61.611984   73.541656   23.451717
H   28.439280   96.148132   21.814022
H   82.928314   76.311333   66.083076
H   17.696653   66.012741   31.194466
H   93.894653   91.837990   35.285233
H   99.676826   45.360481   66.816231
H   40.091949   36.850124   14.070758
H   41.018944   54.726608   55.664455
H   38.525154   40.571827   46.364052
H   95.746124   14.253659    6.634417
H   25.732704   57.220242   77.283958
H   92.231537   38.474289   65.592529
H   26.834238   78.417244   15.432316
H   85.656746   97.461525   34.970215
H   53.765976   55.255821   15.098150
H   28.605995   54.033871   60.740944
H   86.015625   73.978676   99.710526
H   79.975845   41.190205   19.025204
H   59.494030   22.142946    5.196719
H   51.032799   95.181488   22.495905
H   91.568398   55.565659   82.736053
H   70.265587   24.284086   84.891785
H   15.440737   40.295380   64.725311
H   20.246563    0.250366    0.414572
H    6.826124   71.130966   76.973190
H   16.265635   82.948746   71.579330
H    2.764732   60.145786   52.663879
H   99.234627   33.796597   48.328728
H   32.633308   76.776566   70.959351
H   56.449795   97.628716   25.097725
H   11.860374   13.550615   98.582848
H   79.581192   35.679893   76.967178
H   43.543365   81.093506    7.383334
H   65.705986    4.819338   51.265598
H   24.480101   62.859032   92.235390
H    9.350984   87.789314   89.972801
H    6.513939    0.669225   32.777016
H   79.995506   92.971458    6.160297
H   48.553955    2.492421   18.519514
H   44.153259   52.948761   46.111172
H   71.323257   75.520218   21.508030
H   85.720490   15.370562   26.199635
H   27.076427   57.819923   26.388012
H    6.419493   90.652138   96.229057
H   66.480888   27.878063   18.298822
H    9.311053   95.199593    8.489073
H   56.715511   84.451889    3.728605
H   17.850273   16.140465   99.460724
H    7.326366   62.376751   78.795067
H   42.907711   34.638756   44.601730
H   25.470583   61.176815    6.283003
H   88.273094   72.158569    0.551593
H   76.399017   66.092377   13.472922
H   52.148842   16.561625   73.907516
H    4.368078    3.435815   98.194412
H   44.560326   39.983360   78.579277
H   82.033630   60.095970   90.775902
H   72.405037    4.219105   47.502464
H   88.274223   92.578522   17.612450
H    5.285764   76.351807   40.051609
H   91.947990   47.438400    4.014002
H   61.242504   17.090628   40.382568
H   36.951038   88.877792   92.317871
H   75.617920   70.063599    1.012203
H   70.027199   12.305890   57.580738
H   93.642624   47.379612   84.635422
H   82.920074   12.182710   79.674820
H   87.966766   28.324348   17.781883
H    5.681592   83.060989   83.499222
H   47.384319    6.921678   58.403542
H   61.042160   64.419334   90.014267
H   43.060547   90.496300   39.990101
H   39.809788    2.025225   89.259834
H   79.102432   41.050411   57.074619
H   30.124880   61.894028   13.961780
H   52.296707   77.207886   44.134270
H   38.321957   85.188393   92.098633
H   76.263420   28.113880   14.179070
H   75.370415   37.867882   75.802177
H   80.133842   18.760233   96.921860
H   90.310318    0.561091   63.427567
H   64.944099   51.760044   53.630833
H   45.186295   52.273048   73.464195
H   31.196442    7.874542    9.330053
H   52.236927   26.745258   42.396103
H   44.802006   74.499397   35.960960
H   95.128746   12.972237    5.901170
H   35.177250   12.610077   57.453133
H    1.650507   53.434456   33.398239
H   77.975395   40.451145   16.113182
H   18.237314   45.966599   98.327675
H   39.870991   87.029137   87.845032
H   83.157608   37.897694    9.987339
H    7.053836   75.005386   14.831467
H    8.293578   54.192139   20.717064
H   76.085503   64.027107   39.777016
H   21.582743   14.413201    5.251341
H   96.694786   74.150673   20.592747
H   76.433319   56.684322   64.555481
