100
TIME:    2.648, STEP:  2648
H   38.248444   79.186272   96.721695
H   27.611366   48.315804   45.034992
H   25.271521   64.411728   92.253914
H   81.921066   23.553011   95.016785
H   71.453156   85.006393   93.907242
H   86.957283   98.339317   40.986256
H   14.189196   40.143661   97.529900
H   11.758720   17.688059   65.064430
H   88.535042   31.699081   33.404545
H    2.478891   54.404716   11.381412
H   53.944519   72.790604   84.680511
H   54.775589   56.421188    4.441929
H   74.822258    1.499552   61.938446
H   23.967613   96.913979   58.755131
H   12.709656   33.496857   23.484892
H   95.053436   80.125275   13.234259
H   11.170787   57.114105   14.446237
H   57.731369   65.928383    7.742737
H   86.508904   89.439560    2.870647
H   21.177704   49.580242   96.620827
H    7.140563   92.600189   85.371521
H   16.246689   47.599243   93.776642
H   50.389412   73.086205   56.588181
H   73.013611   68.440308   10.409614
H   34.875481   76.162354   56.099045
H   34.517200   48.706234   40.974510
H   33.738541   32.402355   52.513081
H    9.111769   80.039406   54.302135
H   68.748917   89.339485   31.999048
H    2.530098   25.302292   93.897392
H   20.269979   59.505970   99.877617
H   32.953407   79.349632   54.125435
H   56.880054   74.742134   36.349709
H   89.985069   31.049271   60.194839
H   14.949101   58.751648   85.973320
H    2.787297   92.498711   11.537248
H   33.776917    7.559809   17.117186
H   54.542999   10.488125    9.304205
H   33.299988   23.720812   87.701614
H   13.781782   64.287331   46.373692
H   54.278393   47.041752    4.731285
H   93.633995   30.701706   27.206095
H   34.049610   79.379211   92.741539
H   10.266748   57.152733   39.641388
H   26.961557   27.414806   82.707253
H   43.924740   13.423328   93.921608
H   62.420628   68.844879   50.877357
H   56.380833   22.646959   32.421135
H   42.432495   13.142651   38.844353
H   81.420494   71.050117   98.460968
H   43.342594   13.996138   81.336929
H   33.819782   18.024200    0.224475
H   63.809784   37.362732   49.078476
H   15.373074   64.006630   48.664948
H   29.953003   90.642853   22.874830
H   96.879471    9.749029    2.482635
H   64.121895   13.140229    7.834286
H   28.880951   26.816883   45.349930
H   99.119881   50.653515    8.194429
H   84.278030   31.322134   88.295174
H   26.738825   55.426281    7.937596
H    4.931377    3.295538   75.541870
H   53.845730   26.579813   51.895187
H   24.872381   56.198959   55.249989
H   37.425640   49.353153   42.164375
H   38.674294   10.632942    2.755688
H   75.114388   39.910709   94.907059
H   97.450142   68.979065   92.792313
H   88.877800   59.517937   94.153938
H   84.032532   81.330147   96.157196
H   37.947273   15.229558   30.385124
H   55.626694   63.643127   50.496490
H   34.337616   87.325798   93.850578
H   71.917412   81.809219   45.830040
H   89.842430   32.412594    2.133859
H   88.257774   77.285393   17.753117
H    7.375827   97.035538   37.881077
H   56.388180   77.575127   60.680676
H   88.494202   45.740719   47.224091
H   69.662422   64.739960   92.793716
H   62.701504   56.676434   38.253040
H   40.006516   61.521011   65.353371
H   85.339615   51.456055   82.108856
H   32.328938   38.754364   21.564240
H   23.393948   83.250580   91.058617
H   90.346252    6.319035   25.668514
H   44.008659   10.821762   49.810211
H   98.582733   93.289276   68.206795
H   10.635834   46.735435    6.535811
H   32.219440    0.327532   18.877918
H   32.389709   16.416595   89.382645
H   74.216263   94.652641   83.979179
H   55.184635    6.977343   23.771912
H    3.166374   73.854485    5.360142
H   10.807796   12.537361   76.935295
H   12.635573   91.165169   30.676483
H   52.416397   19.643612   84.900505
H   16.587378   38.783813   13.666042
H   82.568932   48.264782   23.239998
H    3.691053   10.687185   42.645660
