100
TIME:    1.228, STEP:  1228
H   34.277260    9.407463   98.021744
H   67.111183   71.326561   55.462093
H    0.863464   62.251232    8.921135
H   81.682724   82.055992   72.853508
H   84.171967   71.187141   32.408287
H    8.974052   99.877708    0.358102
H   88.610970   44.258640   86.483971
H   23.367920   94.840073   95.442650
H   23.441414   68.226181   22.788477
H   41.281227   34.015617   55.778999
H   86.029465   15.653478   21.462633
H    8.969555   85.244118    5.519050
H   65.147858   87.411552    3.076151
H   94.278587    1.291116   50.692204
H   95.437172   60.334759   91.743210
H   52.149292    4.325977   31.105942
H   25.337467   63.206589   85.162056
H   27.386063   34.983154   56.973923
H   64.386406   29.869448   28.058428
H   59.431641   79.736191   99.940636
H   91.405380   33.966232   23.914589
H   80.096428   45.720757   14.692760
H   69.348457   84.634972   97.214706
H    4.947036   51.409672   15.871906
H   85.664055   88.783760   45.622818
H   41.028278   91.018906   74.071793
H   56.187721   91.430374   24.334524
H   28.926323   13.758494    7.363253
H   37.872757   60.505680   99.124901
H   48.079876   60.446945   81.011284
H   64.407784   32.165466   12.238861
H   43.293766   18.585136   85.581978
H   56.857334   78.636131    8.424893
H   29.987816   61.183846   20.017527
H   50.247963   66.092751   99.506409
H   79.324493   80.949783   16.418959
H   97.580528   59.564308    5.226951
H   13.236612   36.478268    9.098717
H   95.513412   54.293816   24.428719
H   47.529236   97.221565   34.650364
H   51.320221   98.318703   71.275681
H   21.255547   66.972939   60.493610
H   21.818319   70.863892   90.173073
H    0.943812   33.351006    0.801735
H   50.135124   83.439835   61.193306
H   62.244595   86.338997   88.158058
H   49.046619   91.983871   38.116402
H   56.304996    8.026827   44.559597
H    0.928245   30.746277   95.487961
H   51.644878   49.440342   97.777794
H   43.450932   51.088249   66.364700
H   64.811363   49.790211   93.445297
H   34.352844   29.129089   31.548965
H   48.253475   87.169167   86.005325
H   42.999283   66.158920   10.826548
H   95.102737   11.241377   50.822784
H   74.100739   54.113625   72.780434
H   34.618835   60.918297   81.924637
H   87.126839   90.654053   17.208748
H   77.982849   22.175779   28.682335
H   37.164318   21.464485   18.651688
H   55.327026   16.515305   39.792152
H   57.528374   23.413284   49.312599
H   27.363432   48.474503   93.798897
H   81.064262   62.766903    9.922074
H   25.907173   81.225594   18.794294
H   89.043503   90.818146   26.350700
H   95.539268   87.767319   24.908102
H   18.104782   61.550079   83.214607
H   55.261406    9.907375   99.147308
H   83.037300   11.847631   47.419498
H   72.712173   10.770519   46.530426
H   26.924248   57.562893   30.260883
H    3.162792   71.670410   30.224907
H   21.379097   30.390997   94.488213
H   54.691845   86.276146   13.301229
H   78.449852   20.111895   12.763065
H   89.673996   70.425972   82.258133
H   20.413393   49.905125   31.381096
H   39.302170   42.074875   15.127767
H   34.912960   41.985882   53.383083
H   33.460751   52.247330   84.092606
H   95.496788   27.752802   46.860752
H   34.645435   17.243143   51.265785
H   92.535553   72.072937   28.711525
H   23.028118   54.162670   27.059456
H   49.170067   14.067329   82.098816
H   75.723541    6.978006   82.977364
H   81.166695   25.798819   18.152962
H   57.766434   58.753891   68.113716
H   74.277351   39.740078   59.394848
H   69.146523   87.863701   56.919334
H   64.074760   64.423691   13.916168
H   65.919563   87.720116    9.616807
H   35.361729   39.733162   44.304070
H   95.349319   47.238274    4.021019
H   65.129471   38.152721   66.565674
H   11.373946   26.693359   36.388489
H   50.212883   42.143719   42.186993
H   15.504379   47.161617   79.411812
