100
TIME:    1.132, STEP:  1132
H   40.769447   18.211037   98.109634
H   69.781593   66.121971   49.406429
H   99.213776   55.344494   10.048332
H   81.666611   86.011070   78.115227
H   85.031830   63.492317   35.011314
H   10.462700   99.981712   90.851250
H   93.642708   37.775974   78.976646
H   30.913330   86.534409    4.256882
H   25.801277   77.456161   28.831324
H   43.904762   32.637199   52.019478
H   94.959152   11.790868   30.709826
H   12.633862   80.432106   12.352213
H   71.254791   93.219658   12.617637
H   99.032005    1.587083   43.386295
H   94.269691   68.909637   96.357468
H   56.009155   12.723194   39.074692
H   33.055412   56.857956   76.421333
H   25.334549   39.651611   60.302048
H   62.891342   25.841860   23.001055
H   62.017822   81.775253   93.404503
H   97.102158   43.523605   26.520180
H   70.891350   45.594048   22.867290
H   70.630196   85.415733   99.961288
H   13.866501   50.258305   23.002029
H   89.097649   96.398018   44.914566
H   41.468464   93.879745   83.070328
H   64.466248   95.420609   22.429495
H   37.026176    9.277354    4.190127
H   35.785355   51.795719    3.662754
H   44.398724   62.822922   73.379448
H   60.631413   23.556219   19.835175
H   37.232243   21.237236   94.469185
H   50.094883   85.660057   99.776451
H   25.931664   69.981697   24.061594
H   52.634193   73.349586   93.660217
H   70.977814   73.408768   16.749281
H   88.372520   63.079933   97.662605
H   17.204269   38.235348    2.324440
H   99.828842   56.343132   33.630135
H   56.570984    6.208763   27.097136
H   57.880524   95.024269   69.013962
H   29.883476   62.664604   55.983356
H   20.991415   70.288208   83.238503
H    7.073909   31.741934   91.415047
H   58.462029   87.227921   52.977730
H   63.483120   84.507942   87.768410
H   48.032948   86.805649   37.296089
H   56.299870    7.038423   38.619656
H   98.121819   38.696716   99.317062
H   49.631451   47.979160    4.492177
H   43.458256   60.356316   65.352493
H   60.145836   58.698658   99.747055
H   32.361389   28.572449   37.124863
H   50.476376   88.735085   81.768997
H   50.642105   57.742847   10.011911
H   94.982620   11.342268   54.090851
H   68.014313   56.883644   63.650063
H   41.767273   69.984215   84.397293
H   79.555061   86.597900   24.578743
H   84.318298   14.796629   31.412804
H   31.108599   25.928596   26.136307
H   58.734253   17.408859   44.136147
H   51.016411   29.960037   55.898537
H   20.771269   47.952286   96.404854
H   77.254204   70.434013    0.981767
H   31.804634   85.998055   13.118118
H   96.745651   87.498810   21.715569
H    2.170676   82.277084   20.318747
H   13.319973   68.448029   89.235115
H   53.316826    5.078756   99.349457
H   86.085640   18.379736   48.570866
H   80.628189   13.956738   39.501373
H   33.183823   62.311184   32.722553
H    5.275664   77.745117   35.930473
H   16.750557   30.254400   87.210869
H   52.422070   80.123802   19.760746
H   69.734032   28.432573   11.064396
H   85.163742   76.702827   76.956863
H   15.811586   50.186375   30.310661
H   44.010178   47.303635   23.398254
H   33.034298   40.992718   47.645290
H   26.257675   51.620377   92.119949
H   89.422081   26.150629   37.717197
H   28.041189    9.028298   60.034340
H   97.209869   78.077332   38.017677
H   25.237835   50.636059   20.392952
H   42.758446   21.047310   77.521179
H   74.178131   14.663858   83.974922
H   79.174507   31.143667   18.938484
H   66.253738   62.703842   64.681587
H   70.348640   34.556728   57.367504
H   62.043491   80.643486   55.090477
H   57.915092   61.547363    6.489227
H   56.640663   81.897362    3.144098
H   37.021397   48.332527   42.098015
H   87.420120   51.029289    8.979698
H   72.749588   32.643444   72.086670
H   11.021468   25.875977   37.924377
H   54.786125   41.729900   50.228252
H    9.542465   49.627682   88.657906
