200
TIME:    0.905, STEP:   905
H   29.905069   60.268002   26.710665
H   33.891052   42.586399   16.894030
H    4.199840   98.245094   78.103020
H   40.258240   84.746437   27.110111
H    8.149668    0.583586   44.097401
H   67.984985   34.765850   45.866405
H   12.993888   54.832291   62.522953
H   17.790905   17.601131    1.467970
H   14.434196   77.536705   31.496710
H   87.451935   65.582687   69.842216
H   35.372284    8.799689   13.976295
H   33.527664   59.772648   44.428410
H   27.495777    9.078741   34.036583
H   72.972702   56.012608   74.310326
H   87.515945   77.063797   41.342373
H    9.917100   98.566818   39.977551
H   15.495482   38.862534   83.150696
H   20.771666   15.136356   31.681278
H   87.151161    5.626907   52.273243
H   92.171921   70.572289   11.691921
H   66.065765    9.954168   95.374138
H   75.224419   74.232841   44.948204
H   75.091537   57.706367   33.179901
H   22.693666   94.122070   89.500854
H   32.150688   39.449253   21.681370
H   18.110613   91.848961   84.993164
H   11.774000   72.140190   75.819458
H    9.772357   97.562103    2.481063
H   39.077110   36.316719   34.444416
H   62.998714   38.579308   75.622437
H   12.493281   79.232002   17.007849
H   19.833252   79.092270    9.975966
H   11.055374   23.294521   81.301903
H   74.417503   64.303436   49.913795
H   16.075191   62.322834   29.160049
H   11.332959   34.760620   87.095543
H    5.350947   60.075935   90.947304
H    0.021559   61.957176   85.268364
H   28.458473   22.588423   59.213413
H   83.705299   36.953846   37.719818
H   80.702179   74.158653   23.597073
H   46.439133   29.161983   20.112032
H   64.728287   72.505478   75.021240
H   35.799789   95.532097   42.531296
H   51.498707   96.584267   68.361794
H   31.701591   96.532089   49.920219
H   92.505814   93.631668   10.758677
H   73.926132   65.540459   23.741104
H   12.798278    3.516649   61.645782
H   38.319923   20.802507   77.579277
H   62.388916   62.079102    1.514463
H   95.717934   47.143902   77.838982
H   70.113853   75.405235   16.617029
H   12.509147   96.217133   91.550919
H   49.050858   61.595543   69.266586
H   96.781303   55.966328    0.423926
H    3.532699   19.261940   42.521183
H   74.673996   74.038490   93.300117
H   14.148998   87.323685   23.209980
H   27.722832   92.255043   54.701027
H   48.265797    2.402096   22.806753
H    1.888445   18.000219   54.164444
H   89.767891   38.981773   62.449516
H   40.239006   66.101089   18.515148
H   82.038338   85.992783   45.123158
H   12.653196   42.396385   44.816574
H   61.335060    9.134586   99.574287
H   93.617439   92.961845    0.437447
H   40.176193   14.839768   53.562790
H   41.408974   53.220505   50.947079
H   58.173435   88.093864   91.069199
H   13.450819    6.342514   40.109848
H   98.599747   37.159756   77.227959
H   29.530441   94.347641   79.932838
H   87.242416   11.636380   36.344444
H   70.122421   95.599564   58.531979
H   92.616837   54.706570   62.738876
H    1.924735   18.079227   25.227898
H   16.590359   59.315544   20.196648
H   58.254379   86.958183   62.724457
H   71.592239   18.862873   91.260757
H   55.877617   56.630333   67.299217
H    8.405228   20.960793   70.822662
H    2.988530   83.604820   15.525177
H   15.227436    6.355991   38.936504
H   43.401783   62.507034   13.939742
H   65.659630    4.169822    3.295913
H   69.801323   93.794235   36.524311
H   86.040451   73.675758   79.565613
H   20.113346   15.855256   47.549450
H   13.367003   40.633514   77.796608
H   79.423279   94.370041   12.878025
H   78.851326    9.362127   76.790276
H   30.208015   70.542313   87.364365
H   41.974670   47.930801   95.636276
H   41.732857   42.577328   97.794815
H   88.326363   91.277199   26.969116
H   96.817551   40.184719   56.590343
H   21.949471   63.116463   55.237911
H   78.767044    8.732726   27.412760
H   39.536221   98.812927    0.253744
H   15.299604   86.717415   62.196426
H   36.964226   12.866743   39.795250
H   53.829506   69.167282   16.570997
H   24.457211   18.733547   46.647575
H   13.750492   94.214882   12.756227
H   88.956543   36.940716   51.463860
H   60.832367   59.807003   93.027626
H   89.696548   31.695469   31.288731
H   25.728903   18.788481    8.791945
H   55.943874   90.288010    1.263727
H   12.695157   80.067810   98.085968
H   45.544109   87.991524   79.470688
H   60.971519    5.060835   57.806309
H   41.658562    9.659746    3.455563
H   86.899780   86.344597    8.934529
H    5.233343   17.806698   91.932480
H   37.397205   59.728470   20.685814
H   44.116581   82.680534   50.674248
H   88.332031   59.947262   74.150909
H   47.495186   26.178493   65.728943
H   89.596657   11.726665   67.748741
H   48.268806   93.775650   43.757126
H   94.279976   43.389088   88.743553
H   57.017921   92.487625   70.819305
H   72.084755   80.547264   12.691816
H   78.857018   52.294937   45.372467
H   60.882812   92.785576   40.618992
H    0.651374   28.412224   69.735580
H   99.977440   20.997404   77.830841
H   75.453094   61.441498   28.824741
H   56.174988   92.646988   25.009319
H   90.266273   14.948158    2.322630
H   68.312874   30.052795   57.891315
H   37.277493   89.345840   25.858910
H   44.646324    0.773385   73.884583
H   69.993675   88.259087   88.443558
H   96.890572   43.457458   72.691055
H   63.695206   53.633446   71.392807
H   43.808167   77.197060   76.979630
H   83.539909   43.512676   36.391312
H   26.624735   61.216228   61.749115
H   33.628109   68.999886   76.954094
H   27.241356    2.455755   89.144173
H   71.560066   47.712364   70.813766
H   70.306503   73.432251   97.996742
H   60.459251   93.865578   42.520370
H   24.494217   48.664856   65.009666
H   82.962982   37.027363   91.333626
H   30.660334   95.935043   65.111183
H   52.781651   72.603668   46.323921
H   61.780666   88.708527   27.312733
H    7.068673    6.973133   80.120857
H   27.488684   16.406988   59.518608
H   39.982300   71.442200   72.783279
H   83.243271   45.177807   74.521339
H   66.272171   80.827309   88.629929
H   55.500622   25.990227   25.303728
H   81.945770   99.228455   77.942596
H   56.224098   29.810383    3.760719
H   60.488140   57.392746   65.734573
H   12.380699   19.610094   29.782963
H   93.844307    5.576029   36.955544
H   35.684471   39.715355   42.748234
H   52.586884   44.652966   16.358604
H   23.371035   43.280067   58.666626
H   63.448837   86.811043   59.271393
H   24.213135   61.188663   75.511337
H    3.109596   26.007610   35.286671
H   56.820377    5.441341   82.914795
H   66.660828   13.542211   35.920265
H   23.189430   40.746693   59.500217
H   50.521702   48.878677   71.712784
H   63.036930   58.632938   89.667931
H   40.529816   90.034027   67.963150
H   21.434776   51.258030   23.938038
H   28.586212   73.695976   14.724903
H    7.623817    9.835052   73.383469
H   58.594231    5.920052   61.357956
H   54.667713   61.588509   95.765991
H   69.276817    9.020427   26.258135
H   32.640797   30.917812   93.893089
H   35.015213   89.464729   19.242119
H   65.962730   26.450821    1.654892
H   94.122627   59.491264   75.657120
H   13.181823   41.835114   87.282448
H   54.507660   93.134125   13.999977
H   58.472923   95.392891   48.796017
H   87.359627   64.138771   74.143585
H   61.706371   54.655872   74.104813
H   79.587044    9.022907   74.552620
H   42.201389    3.001304   16.154100
H   18.871677   33.344723   73.041046
H   23.486073   90.070854   46.715057
H   62.073574   24.552572   19.641001
H   76.951675   12.015225   20.455549
H   13.881608    3.692625   25.912153
H    9.582870   84.189590   28.212345
H    3.045401   13.472618   48.275932
H    1.071813   12.462653   88.509865
