100
TIME:    3.618, STEP:  3618
H   72.651764   90.232361   95.833633
H    0.628284    0.906127    6.222263
H   41.944878   34.196892   80.871925
H   82.083878   83.588066   41.848415
H   62.764954   62.756161   67.605820
H   71.919441   97.288445   37.048607
H   63.349178    5.641444   73.385246
H   35.518631    1.605677   76.001671
H   64.690590   38.437515   72.347725
H   75.970604   68.332481   49.368240
H   63.717484   11.820499   91.245461
H   17.750824    5.042373   35.395348
H   13.121840   42.813446   65.528343
H   75.938896   93.924171   32.571606
H   24.509773   46.852768   76.859291
H   56.052734   95.285454   32.716164
H   33.169197   21.273746    2.749166
H   78.455040   18.757515   74.113953
H    1.620274   30.132883   53.971272
H   95.045097   28.984072   62.662895
H   49.579468   96.033447   59.041893
H    9.241531   48.886932   11.172119
H   37.438515   65.197258   28.835835
H   82.890083   80.073914   38.369503
H    0.184467   99.232925   63.259560
H   30.067884   19.805670   50.055252
H   50.095127   92.080765   71.758827
H   27.265825   25.315704   86.363396
H   89.840378   77.345352   86.147926
H   39.722794    1.293902   71.009277
H   58.448086   46.488285   23.134300
H   94.200050   52.548141   64.327675
H   25.204153    3.772635   23.734968
H   30.971191   42.154579   19.330357
H   90.836838   85.426964   45.038582
H   87.130028   68.699127    8.198140
H   26.812614   72.036606   93.549675
H   14.454350   92.737709   77.753212
H   92.354919    2.588648   93.701500
H   22.418613   73.478806   22.690596
H   87.987473   80.325485   27.584211
H    6.455939   74.237183   72.778061
H   42.404789   85.196014   62.804379
H   48.324951   73.407379   34.483017
H   42.820782   89.143921   65.712830
H   31.410473   31.924610   97.858681
H   70.000290   21.597134   60.194603
H   56.432636   32.634186   92.439293
H   70.785629   32.806702    0.149403
H    1.757732   85.806740   30.616711
H   43.268589   20.349056   91.564438
H   80.961044   28.015545   36.547245
H   83.924446   42.987122   92.741402
H   92.910179   48.176933   91.469513
H   52.722916   75.658142   31.119219
H   98.093155    8.728598   69.461548
H   25.617548   85.150688    0.089241
H   56.652336   35.212494   20.364075
H   75.620216   91.637558   33.727055
H   20.268654    5.878722   60.706062
H   87.926582   10.319188   32.308048
H   70.504723   94.266251   31.651375
H   19.685907   60.397392   85.373344
H   91.480949   61.475525   28.911564
H   75.928215   71.881111   32.498127
H   79.085762   62.411324   60.108200
H   97.289139   73.444519   41.739910
H   30.445900   24.454836   39.163921
H   37.223152   89.819931   33.317989
H    3.687517   30.117071   94.114655
H    7.143885   49.231331   18.747818
H   75.645920   31.450897   21.514359
H   71.091049   39.344677   68.984856
H   50.567074   20.424809   88.185204
H   36.609936   33.796490   75.666786
H   11.187516   39.452606   52.483273
H   95.445656   12.962059   55.035465
H    1.960551   14.147959   14.247622
H   35.008774   42.891521   58.051041
H   22.091927   11.909210    9.227278
H   81.676926   66.711533   96.228653
H   12.786595   67.855850   84.242310
H   46.709835   67.648376   74.496552
H   99.063248   21.759132   32.968414
H   76.162552   22.576122   97.028000
H   68.026306   41.949837   93.027985
H    8.792776   40.294853   96.063416
H   14.194452   15.628305   58.116814
H   30.768436   92.728172   98.600227
H   46.459057   60.423241   53.550720
H   72.086060   68.791801    9.867349
H   45.989937   67.598198    2.465333
H   17.375023   36.075256   98.789940
H   96.920662   32.690750   70.760704
H   94.036263   25.651089   99.225639
H   92.753525   52.860115   80.574425
H   75.422638   75.310265   29.115248
H   20.147024   47.042786   98.144630
H   36.360130   52.446072   41.991852
H   63.937275   85.789619   49.206818
