100
TIME:    2.525, STEP:  2525
H   46.566559   90.466026   96.834305
H   31.032829   41.646484   37.276173
H   23.157270   55.562469   93.697197
H   81.900421   28.620924    1.758531
H   72.554855   75.147400   97.242371
H   88.864143   98.472572   28.804808
H   20.635574   31.837746   87.911140
H   21.426277    7.047180   76.357323
H   91.558617   43.524994   41.147411
H    5.839827   52.638618    6.564559
H   65.385681   67.841400   96.528946
H   59.470482   50.255798   13.196924
H   82.646767    8.941404   74.163963
H   30.057930   97.293098   49.394436
H   11.213352   44.483826   29.397379
H   99.998886   90.883270   23.444689
H   21.061203   48.979286    3.248623
H   55.102867   71.909843   12.007366
H   84.592659   84.280151   96.390335
H   24.491249   52.191853   88.246407
H   14.439545    4.844982   88.710403
H    4.454559   47.435959    4.251202
H   52.031639   74.086555   60.107239
H   84.441635   66.965118   19.544945
H   39.274773   85.918121   55.191597
H   35.081188   52.370747   52.502945
H   44.345451   37.515781   50.072262
H   19.490019   74.298180   50.235981
H   66.074432   78.179848   37.813469
H   97.813774   28.346512   84.119102
H   15.429757   48.476452    9.609392
H   25.187080   82.748573   65.512169
H   48.215664   83.741539   25.268896
H   84.788124   42.321518   65.376770
H   18.006847   68.049469   78.482887
H   92.093002   82.836784   11.960004
H   21.979698   12.064672    7.425437
H   59.626396   12.739384    0.624665
H   38.492241   26.400457   99.621368
H   25.366991   75.801689   36.695812
H   62.683781   42.821697    1.832829
H    4.688563   25.181007   21.427801
H   32.990139   78.641617   83.856621
H   18.120817   55.091034   27.615423
H   37.630627   32.267353   72.181984
H   45.511600   11.077290   93.422371
H   61.458752   62.155853   49.695892
H   56.374264   21.380568   24.810585
H   38.837425   23.329151   43.751328
H   78.841728   69.178917    7.063658
H   43.351978   25.871317   80.040039
H   27.842402   29.437679    8.299450
H   61.258232   36.649536   56.222633
H   18.221165   66.012962   43.237152
H   39.745369   79.860458   21.831312
H   96.725571    9.878296    6.669846
H   56.324589   16.689507   96.135857
H   38.039886   38.432800   48.518021
H   89.418541   45.456570   17.637236
H   92.395325   21.867598   91.793587
H   18.979536   61.145924   17.527462
H    9.296417    4.440639   81.106674
H   45.502277   34.967674   60.333420
H   16.426172   55.529869   58.589809
H   32.543064   59.177425   30.709188
H   46.230415   16.747658   95.483055
H   84.982765   35.658749   88.968765
H    5.946720   61.944702   86.912201
H   82.748070   68.355934    1.867892
H   81.540100   75.144112   96.416199
H   41.852959   23.598795   31.860783
H   65.768311   67.725235   41.490517
H   42.357315   93.410484   97.003654
H   74.623802   89.592438   53.140297
H   83.911644   32.237110   92.809677
H   85.350563   69.402702   26.029472
H   96.208313    7.696291   35.705830
H   50.609417   85.617348   53.887486
H   82.595322   46.102009   45.851189
H   75.694557   71.438370    3.390254
H   60.294468   55.403942   30.901562
H   30.777199   60.717728   75.638405
H   77.558273   49.402802   70.393677
H   23.867245   28.229097   32.798950
H   29.383385   90.943710    2.982078
H   93.176514    1.801006   17.127056
H   35.793770   19.764862   43.945114
H   96.602676    3.136944   69.486794
H    8.083099   53.583992    7.542145
H   43.094738    5.388405   14.481053
H   27.356049    9.774961   86.785110
H   65.115509   85.403618   81.635017
H   47.292561    3.291939   14.255953
H   91.278328   66.394081   97.066795
H   12.934715   23.555298   74.108788
H    2.476224   96.022408   37.029556
H   62.179672   12.584964   91.974281
H   16.136000   37.736542   15.634134
H   88.428398   47.734577   33.542862
H   96.052322   13.846596   54.492218
