100
TIME:    2.077, STEP:  2077
H   76.863434   31.549759   97.244461
H   43.494743   17.356012    9.016621
H   15.456587   23.331482   98.954033
H   81.825226   47.078270   26.315334
H   76.567551   39.238224    9.389168
H   95.809456   98.957924   84.438164
H   44.114429    1.585622   52.876961
H   56.638191   68.287933   17.490280
H    2.571345   86.598236   69.348427
H   18.081282   46.206001   89.022392
H    7.057541   49.815037   39.682331
H   76.568069   27.799746   45.085564
H   11.144898   36.046120   18.692291
H   52.240547   98.673958   15.300198
H    5.763576   84.501404   50.933792
H   18.013138   30.067207   60.632584
H   57.079758   19.352333   62.458885
H   45.529137   93.695976   27.540325
H   77.613167   65.488159   72.785843
H   36.560097   61.704060   57.744453
H   41.024506   49.446026    0.871405
H   61.504154   46.841339   42.402458
H   58.013084   77.730110   72.924622
H   26.065742   61.592075   52.818871
H   55.298210   21.449265   51.886421
H   37.135387   65.718353   94.495171
H   82.977074   56.140293   41.182125
H   57.289902   53.387051   35.425983
H   56.333221   37.533363   58.991203
H   80.635063   39.434402   48.503872
H   97.805031    8.300638   45.058071
H   96.900360   95.128456    6.985751
H   16.658390   16.519096   84.909515
H   65.859413   83.378159   84.250793
H   29.144299    1.914752   51.202263
H   53.141827   47.643787   13.499799
H   79.009949   28.472631   72.124817
H   78.144142   20.939091   69.008507
H   57.403862   36.161194   43.035210
H   67.562370   17.741217    1.447781
H   93.301796   27.450586   91.277756
H   44.952271    5.073500    0.381145
H   29.131254   75.955093   51.496613
H   46.728386   47.581757   83.811813
H   76.490608   49.941669   33.845177
H   51.291386    2.532368   91.604012
H   57.955334   37.792572   45.392670
H   56.350338   16.768019   97.090950
H   25.743185   60.431202   61.623886
H   69.449150   62.362667   38.396191
H   43.386158   69.122536   75.316406
H    6.071650   71.009750   37.711071
H   51.964775   34.051880   82.241234
H   28.594700   73.320580   23.468359
H   75.410782   40.585957   18.030531
H   96.165024   10.349121   21.920822
H   27.924685   29.616264   53.527458
H   71.399261   80.740417   60.057083
H   54.084541   26.527365   52.031540
H   21.958584   87.432816    4.535522
H   90.719101   81.981392   52.455685
H   25.195099    8.611416    1.375432
H   15.114042   65.517479   91.067795
H   85.663452   53.092857   70.752464
H   14.761027   94.957184   88.988205
H   73.751900   39.019142   68.993797
H   20.927099   20.170626   67.339859
H   36.893288   36.323608   65.495209
H   60.421349    0.546359   29.966599
H   72.461975   52.611137   97.359558
H   56.078545   54.080788   37.237095
H    2.709535   82.593399    8.689486
H   71.567276   15.570194    8.490490
H   84.481224   17.942514   79.766273
H   62.310349   31.599024   58.848736
H   74.761696   40.688988   56.172878
H   55.533775   46.526764   27.782068
H   29.561565   14.910299   29.144810
H   61.110619   47.417820   40.850777
H   97.665260   95.835831   41.985725
H   51.527378   50.769176    4.126524
H   97.162170   57.791946   13.099920
H   49.214695   41.924286   27.723759
H   93.048531   89.893166   73.718872
H   51.197067   18.966080   46.410538
H    3.486123   85.346703   86.016350
H    5.872869   52.338104   22.582808
H   89.390762   39.004807   74.148903
H   98.785103   78.528328   11.207115
H   82.703964   23.821510   98.466606
H    9.022064   85.583374   77.324173
H   31.964750   51.714870   73.096931
H   18.548244   89.866745   79.597397
H   47.978237   39.218113   66.858788
H   20.681541   63.685669   63.813866
H   65.473267   13.713137   60.169205
H   97.740219   86.875389   17.739365
H   14.491174   33.922089   22.803280
H    9.769804   45.803425   71.069382
H   68.230057   25.353348   97.640656
