100
TIME:    9.634, STEP:  9634
H   65.813873   38.537727   90.325821
H   34.407852   26.916218   85.559685
H   45.370472   67.012474   10.251331
H   83.093643   35.730583   12.089675
H    8.870340   44.964569    4.489267
H   78.624268   90.770866   32.832855
H   48.051418   11.871234   43.844524
H   62.672897   22.065647   23.631569
H   16.805763   60.022141   93.661186
H   11.618773   54.714970   84.930794
H    4.123770   53.885925   11.751619
H   88.137764    6.593204    7.170761
H   29.421555   78.855003   67.706497
H   78.063644   75.381203   90.391335
H   97.620552    9.476448   87.601341
H   14.160477   69.104050   33.335022
H   49.398079   19.185532   50.409378
H    7.084471   26.048302   65.562576
H   95.321381   82.511566   70.919022
H   32.958729    1.225082   72.260124
H   92.581009   97.122383   95.759766
H   86.001312   56.873260   98.854218
H   57.114418   16.276903   56.710709
H   23.920013   52.078827   91.569504
H   85.017807   22.135880    7.685470
H    2.179820   42.093185   84.279793
H   31.328033   42.003239   91.118210
H   19.652990    6.122259   85.221275
H   20.653378   23.163767    1.768392
H   70.403465   52.398056   49.263710
H   95.213387   85.955124   47.167679
H   74.054001   86.334534    7.396407
H   48.964111   63.613068   65.703758
H   85.161179   90.824150   65.886299
H   41.192207   30.240974   11.192578
H   10.104708   40.010021   89.139229
H    3.825345   51.717537   67.586868
H   65.798790   82.648140    2.286749
H   38.418156   71.508751   10.706421
H   55.777660   10.279529   96.017471
H   76.835983   86.748566   69.317345
H   88.312584   79.383804   71.790276
H   94.197357   21.280872   97.347221
H   64.188148   74.355629   22.694973
H   20.974157   51.791233   80.519196
H   53.771637   46.664623   22.300535
H   17.012249   48.770809   17.948133
H   56.775631   94.597076   64.674500
H   46.640060   34.562260   60.171814
H   28.000792   77.375786    9.923170
H   44.925434   39.700211   51.783066
H   73.341354   69.776169   41.624092
H    8.701067   77.869934   43.345123
H   53.587051   50.018867   56.937813
H   73.721352    2.882019   82.279175
H    5.594894    2.399691   64.662689
H    7.006588   11.561512   72.260994
H    8.688691   67.074654   65.405418
H   50.093151   45.842010   71.883873
H   23.274586   68.290436   89.596718
H   67.424561   30.546019   63.259808
H   56.988426   38.270157   59.449081
H   28.116692   49.882591   72.841019
H    4.588938   94.243469   65.579666
H   14.712157   91.391029   92.740761
H    9.517986   63.338921   15.822116
H   14.614544   81.433716   32.192455
H   14.879653   68.516121   26.763519
H   37.059624   57.548538   56.006290
H   25.686508   32.535107   81.410065
H   16.101479   39.900105   46.590034
H   79.930275   31.714256   62.212803
H   78.837402   41.772770   14.732342
H   18.129147   39.684246   30.733458
H   26.549757   42.500797   31.757849
H   53.413719   25.021408   47.682838
H   41.755806   91.952682   61.606537
H   84.594872   20.785240   46.500610
H   23.499197   25.220623   25.173136
H   27.064678   84.209297   90.943611
H   99.417213   28.950510   55.794487
H   64.222221    6.955378   81.022987
H   27.244818   68.232826   47.437031
H   12.953340   36.561844   83.500267
H   83.236008   46.254837   13.845918
H   29.564312   62.929214   10.797484
H   10.587999    2.881605   82.929420
H   10.969351   34.155067   95.691650
H   55.617924   57.766411   49.397102
H   14.563577   12.906311   68.606781
H   18.286306   93.638657   36.914574
H   91.117340   20.048319   17.093493
H    3.011577   16.582098   64.016594
H   76.266701   97.497665   79.607735
H   90.023758   86.774452   37.463753
H   89.650467   15.296320   69.840240
H   97.901085   20.553753   83.127701
H   19.681459   63.149029   85.472984
H   49.771416   78.404137   38.089367
H   37.615944   31.411446   69.666901
