100
TIME:    8.533, STEP:  8533
H   40.269768   39.504204   91.333817
H   64.815720   67.256317   16.137554
H   26.445353   87.802490   23.175610
H   82.908844   81.090385   72.440987
H   18.736097   56.714832   34.339676
H   95.692993   91.963661   23.797237
H    5.756321   37.527260   57.744877
H   49.209320   26.814997   24.721809
H   43.870445   65.879501   62.966671
H   41.693489   38.906239   41.822182
H    6.536148    9.586339   17.808107
H   30.160408   51.405727   85.541100
H   99.628448   45.495071   77.120667
H   32.577553   78.774788    6.604344
H   84.247810    7.823196   40.548431
H   58.429977   65.401573   24.727478
H   37.933998   46.361721   50.181007
H   83.535828   79.623268    3.731457
H   78.168655   36.323536   12.914210
H   62.618999   24.606371   97.298958
H   57.916405    6.729569   25.644327
H   80.447365   55.411667   92.614532
H   71.814354   25.227064   88.210571
H   26.218828   38.907684   73.339996
H   24.395046    9.450043   99.558083
H    7.373281   74.550644   87.888901
H   26.268457   87.770279   69.278305
H   12.552277   54.731297   48.829132
H   96.712349   23.272429   53.812248
H   28.185627   79.647537   61.737549
H   51.884029   87.226311   34.275276
H    4.536203   16.755405    9.321480
H   71.410782   44.167137   66.516983
H   38.642181   91.724243   12.269930
H   68.592888   13.602135   44.207645
H   14.396742   53.772636   92.600014
H   98.225090   92.037361   80.832420
H   11.308258    2.792197   24.591560
H   84.891380   95.499046   17.401249
H   59.479401   13.352155    9.392850
H   52.081177   48.968872   43.378262
H   81.099075   75.065323   15.585988
H   84.722198   14.674723   17.821247
H   34.483074   55.872017   15.046611
H   16.481594   95.227638   86.302788
H   67.978325   25.665981   17.827555
H    8.404140   88.891243    7.375129
H   56.708431   83.257126   96.551262
H   14.459801   25.747246    4.088099
H    4.891483   60.611156   86.905296
H   42.915676   45.837669   43.378647
H   19.832628   71.940536   13.897874
H   85.867638   71.485962    7.288729
H   79.085907   67.984528    8.354468
H   61.384804    6.395751   72.921616
H    4.223600    3.557836    2.143341
H   37.206779   43.330467   67.546745
H   90.671326   71.050621   93.763695
H   63.255810   99.317451   56.408318
H   95.929558   83.662933   20.911766
H   97.968338   81.746826   49.095524
H   96.065056   48.518112    9.262774
H   53.366802   25.006598   48.337036
H   28.985233   88.245895   95.466736
H   71.014099   79.327881   90.209747
H   77.153297   18.072472   50.721912
H    2.949507   43.369633   79.035080
H   90.932953    5.548275   74.129349
H   82.185883   36.659370   25.057549
H    3.325601   77.234085   83.745255
H   51.068615   14.814843   59.794777
H   70.594681   68.270897   81.511093
H   50.623840   96.234703   42.964619
H   42.363041    9.366734   96.152290
H   73.514481   40.879604   48.279392
H   27.382235   54.459061   21.767065
H   41.761551   87.247437   42.076622
H   32.872952   92.772926   85.691162
H   70.700249   28.454609   12.884521
H   81.059258   44.186852   85.795708
H   77.862907   17.560160   89.988693
H   81.605362   99.808258   73.132530
H   57.606598   49.820103   42.583256
H   37.206161   42.346779   84.059532
H   36.844574   15.130959   20.574677
H   54.907001   22.484379   34.340744
H   37.054630   82.933540   30.429649
H   93.263145   22.254662    7.104005
H   32.770023   19.068552   58.401863
H   11.906651   58.207314   29.251677
H   73.228203   34.187931   13.663474
H    9.654490   37.242172   96.116920
H   32.435139   83.549278   78.874573
H   71.946304   30.860096    2.165857
H    9.059658   85.395401   12.166039
H   98.712372   58.772949   26.708580
H   85.293144   57.370064   46.448219
H   21.806650    8.673470    7.580244
H    2.220735   73.649757   30.309269
H   69.227570   59.660610   75.729614
