100
TIME:    0.347, STEP:   347
H   93.856606   90.199715   98.828323
H   91.617760   23.558514   99.889221
H   85.726379   98.868813   19.265518
H   81.534851   18.353769   21.142664
H   92.063004    0.571104   56.296486
H   22.635494    0.835984   13.109814
H   34.784473   84.768745   17.588625
H   92.612778   18.622303   76.334129
H   45.098076   52.930786   78.245262
H   65.357628   21.368587   21.277559
H   67.977936   80.204895    6.325031
H   42.597202   41.083885   68.229225
H   21.190056   40.713501   90.640038
H   37.900486    4.007386   83.646935
H   84.723106   39.027481   34.092121
H   87.571579   81.386421    4.235780
H   96.168282    4.944700    4.948619
H    8.559815   77.825974   87.516403
H   50.667641   92.909409   81.643723
H   83.256416   98.256439   39.861061
H   43.685074   21.672226   47.824089
H   95.620338   44.557938   89.709053
H   81.111076   91.800087   22.422245
H   86.801453   40.843479   81.303894
H   17.172796   58.654812   39.120865
H   45.067898   17.270027   56.648529
H   32.156216   28.052254    6.851966
H    3.262641   72.635971   78.245041
H   18.716492   80.574669   40.768860
H   14.299310   82.251480   10.974300
H   29.751741   53.159721   81.953270
H   87.667236   42.923676   67.140556
H   94.799622   43.093712   29.057455
H   92.763451   41.922150   57.132545
H   72.146599   32.689743   45.857697
H    2.725041   11.744268   19.450354
H   13.081170   91.827492   35.807446
H   49.647087   52.603138   46.927555
H   35.120266   73.100563    8.867902
H   30.510242   79.698570   65.336479
H   11.528683   68.085411   50.515331
H    0.434781   27.430880   19.102636
H   14.230142   65.580795   26.537613
H   57.200989   18.586931   14.659740
H   26.556126   18.200920   85.800964
H   73.519691   69.727348   84.679054
H   39.744068   44.460125   30.588324
H   56.257946   98.955627   90.048355
H   75.171684    3.711458   30.631594
H   33.167484   36.030956   59.394073
H   43.518147   36.143318   57.075596
H   21.996214   31.539600   51.282928
H   16.077097   24.020752   82.717232
H   68.651688    1.540280   47.128193
H   13.134361   88.924667    3.350600
H   94.000412   12.167263   80.814102
H   18.250610   79.534325   88.989952
H    0.220649   44.116920    4.616760
H   17.644493   53.430405   84.844360
H   36.119987   54.460281   53.740074
H   81.589523   62.432007   87.340942
H   86.595428   24.715530   79.654709
H   97.769157   83.490501    9.752481
H   66.868355   43.682076   17.718962
H   46.095596   33.129574   27.876291
H   80.028664   25.022724   66.703209
H   59.728264   60.357128   83.815109
H   56.396141   37.382980   82.791206
H   74.197685   24.853111   38.469532
H   37.415833   65.598289    1.001076
H   11.013269   71.794655   57.985691
H   45.355022   40.009331   82.027687
H   84.366455    1.143902   52.851833
H   22.553215   27.420523   82.585365
H   78.901413   29.137438   27.703201
H   33.861927   29.811640   72.580063
H   98.459930   96.468620   97.173401
H   48.283020   28.030922   33.603741
H   78.185860   52.485386   21.557629
H   82.507950   90.055992   91.026886
H   17.672321   32.871532    0.728412
H   67.359764   46.493729   57.764381
H   39.751621   13.049191   62.949890
H   74.040924   41.854832   31.735542
H   35.434143   27.178627   14.114596
H   43.306873   21.799725   65.879982
H   90.330055   78.123192   40.089458
H   61.541183   77.512413   92.132042
H   62.884224   74.851875   25.361767
H   35.656502   95.008667   36.616787
H   38.223240   92.168808   40.789745
H    3.961184   21.603716   40.135757
H    7.548427   38.028267   45.759850
H   80.766853   34.280479   50.214428
H   50.592640   18.647114   24.060242
H   22.582397   82.028740   49.525993
H   35.058769   87.594124   17.232750
H    8.139226   19.192169   50.483467
H   92.181908   38.346073   15.985668
H   60.791363   69.791176   64.264999
