100
TIME:    8.864, STEP:  8864
H   17.886044    9.150551   91.030777
H   55.674026   85.191208   37.008442
H   32.134922   11.615756   19.290390
H   82.964401   67.453606   54.297668
H   15.770098   83.245941   25.365589
H   90.561523   91.605064   56.578224
H   88.407829   59.878952   83.629509
H   23.193375   55.449711   94.330269
H   35.733833   34.055298   42.130177
H   32.652809   43.658909   54.782173
H   75.747345   22.903969   85.923943
H   17.526184   67.997139   61.979774
H   78.521744   25.461632   44.227242
H   16.189383   77.754555   31.794506
H   88.268135   78.256660   24.631279
H   45.121490   36.451195   97.251038
H   11.316913   68.254295   80.313240
H   90.614456   63.516716   92.256912
H   83.325378   50.210323   30.351612
H   53.702061   17.577116   19.834894
H   38.274391   73.778595   16.660467
H   12.180657   55.851074   64.426804
H   67.395027   22.536325   78.740585
H   95.464264   42.867401   48.756870
H   12.557380   83.200851    2.001633
H    5.811996   64.792770   56.740894
H   97.726006   74.012283   75.844162
H   84.622986   70.181259   59.771385
H    3.909789   53.303280   38.165306
H   40.877556   71.455368   88.051483
H   64.912025   16.908047    8.087608
H   25.435535    7.610621   78.679207
H   94.724625   19.949856   96.336075
H   52.627457   61.389984   98.326027
H   60.355263   88.540840   64.347107
H   43.169575   79.698669   91.559578
H   29.972263   79.915779    6.913877
H   97.627556   96.735512   47.948334
H   70.921257   88.286705   85.325180
H   28.304056   82.365547   35.435478
H   29.459417   60.325279   51.176479
H   53.204285   76.363342   32.484196
H   87.570770   16.660473   41.728542
H   13.348591   61.430267   47.408710
H   87.769409   82.171684   14.627770
H   63.705643   31.978043   19.172293
H   10.991971    6.892305   10.553825
H   56.728634   86.666321   17.031223
H   24.134338   98.334572   90.885132
H   11.839296   65.650017   63.763149
H   42.892948   13.881432   46.868652
H   35.919933   41.225605   92.169441
H   92.731483   73.405212   88.065445
H   71.419006   62.584709   22.959713
H   35.030464   35.403305   75.734833
H    4.635860    3.209656   90.875305
H   58.189743   33.779671   99.027504
H   66.024109   39.792091   85.238182
H   89.362663   13.304101   30.995977
H   74.085457    9.103925   11.497337
H   18.848425   66.352417   23.289181
H   84.317223   45.437210   94.286430
H   75.838379    2.419168   25.639374
H   51.715557   90.048981   86.481613
H   84.150864   52.891666   21.034529
H   56.819344    1.617974   70.293221
H   76.393021   54.811901   95.015366
H   68.068619   24.479366   89.953064
H   98.681335   12.875816    4.297171
H   10.048232   93.860855   83.043213
H   40.555668   92.292793   55.824959
H   43.338188   57.280663    5.774067
H   29.042374   79.860466   34.476986
H   35.077465   88.417274   76.485023
H   89.459412   41.366993   73.376114
H   35.208229   75.672966   99.495255
H   71.823074   58.599621   47.948013
H   48.421406   71.130852    3.974066
H   86.574471   27.482357   16.578547
H   64.826439   26.155588   57.279686
H   84.342903   20.984507    9.772407
H    6.444097    1.956799   45.441460
H   78.542351   55.355625   74.106133
H   59.977058   70.670876   53.827137
H   20.727921   94.424667   88.488342
H   47.288082   34.642853   57.326294
H   59.161366   58.867149   46.212959
H   98.586540   95.768227    3.671991
H   39.638920    0.639462   55.694710
H   82.642380   44.588211   41.083138
H   86.774071   52.059689   20.653587
H   34.145138   62.136871    2.424292
H   53.652958   93.478874    4.471309
H    3.936989   50.941517   24.483835
H    3.336256   55.747326   19.771387
H   26.051682   45.701843    9.611862
H   59.019615   76.365593   27.411980
H   21.167742   25.051495    0.934839
H   86.452629   75.079094    2.583683
H   89.788803   51.167927   43.843204
