100
TIME:    0.832, STEP:   832
H   61.057533   45.722633   98.384293
H   78.126625   49.855640   30.482481
H   94.059357   33.760937   13.570824
H   81.616257   98.370689   94.558098
H   87.718903   39.445992   43.145775
H   15.114723    0.308130   61.142170
H    9.366007   17.517645   55.516254
H   54.492737   60.579510   31.802567
H   33.175850    6.299963   47.716171
H   52.103310   28.330620   40.270973
H   22.864410   99.720047   59.606209
H   24.084820   65.394569   33.705833
H   90.338959   11.370321   42.434753
H   13.885904    2.512020   20.555332
H   90.621315   95.707123   10.778282
H   68.071228   38.964497   63.977036
H   57.174980   37.018478   49.106575
H   18.923569   54.240540   70.702438
H   58.219864   13.255649    7.196750
H   70.127907   88.088135   72.948753
H   14.904480   73.389679   34.662277
H   42.125477   45.198082   48.412792
H   74.635628   87.855614    8.544931
H   41.739731   46.660282   45.283676
H   99.827629   20.190647   42.701279
H   42.844044    2.819373   11.190129
H   90.334473    7.891037   16.476278
H   62.338219   95.274139   94.274551
H   29.262222   24.577402   17.843216
H   32.895123   70.247849   49.529964
H   48.830265   96.652534   43.574211
H   18.289984   29.525047   22.241646
H   28.962387    7.609520   72.750084
H   13.256064   97.474983   36.699730
H   60.091164   96.027199   75.390869
H   44.894440   49.843090   17.781538
H   59.597843   74.066261   74.023689
H   29.602798   43.726223   81.153084
H   13.316128   62.747246   62.384560
H   84.828133   34.294003    3.493696
H   78.383072   84.729164   61.945423
H   56.845757   49.199486   41.888813
H   18.407339   68.489197   61.568230
H   26.230188   26.714544   62.081551
H   84.485405   99.065689   27.304262
H   67.325462   78.844780   86.580986
H   44.865223   70.623703   34.732613
H   56.283848    3.949660   20.057341
H   89.351067   63.541840   11.284577
H   43.339489   43.412968   25.473824
H   43.481144   89.319023   62.189350
H   45.566063   86.535706   19.442223
H   26.138094   26.832947   54.549637
H   57.422939   93.628578   68.530472
H   74.524918   31.442060    7.466173
H   94.607254   11.657553   64.303558
H   48.996040   65.539955   35.117653
H   64.106140   98.315208   92.124344
H   55.894043   73.922424   47.610752
H    4.116182   91.737610   39.945518
H   12.183619   39.878944   49.525742
H   69.381836   20.201218   57.711128
H   30.666603   50.417610   76.479591
H    0.170671   46.320358    4.549749
H   65.347771   94.393364   73.044411
H   50.234200    0.911985   95.380196
H   20.815836   77.125885    7.230796
H   22.894020   65.120102    5.977012
H   98.367760   90.004120    8.049967
H   47.240013   89.990379   99.981171
H   95.611702   38.792942   52.168888
H    5.365364   23.913216   17.536337
H   52.744064   77.151619   40.415272
H   11.878333   96.728577   53.760368
H    2.286799   29.827536   64.469170
H   45.329021   60.897362   39.946529
H   42.495289   54.433708    5.756054
H   71.069199   96.318001   60.389896
H    1.431069   51.065281   26.965553
H   58.722702   63.643509   49.243591
H   27.163479   37.889080   29.714832
H    3.748290   49.661148   17.206547
H   70.438622   21.143839    9.143726
H    7.403144   83.356911   87.436073
H   11.817690   96.841064   67.099403
H   32.143200   39.615398   99.559715
H   22.722128   42.859749   63.216061
H   69.348724   38.681923   87.092293
H   72.948921   47.847404   21.393242
H   92.776566   75.049484   53.956188
H   58.071415   18.357798   51.032055
H   39.846531   58.080315   49.375298
H   38.666130   52.559174   83.280449
H   27.643625   63.701218   82.915733
H   42.207859   75.204590   35.204094
H   62.641373   62.876213   24.475258
H   96.562454   15.426972   89.339783
H    9.919974   23.321655   42.724030
H   69.077507   40.436718   75.358223
H   90.911453   57.334133   17.552389
