100
TIME:    0.881, STEP:   881
H   57.743813   41.229073   98.339432
H   76.763603   52.512524   33.573391
H   94.901245   37.286251   12.995483
H   81.624481   96.351952   91.872429
H   87.280014   43.373558   41.817146
H   14.354893    0.254802   65.994835
H    6.797982   20.826506   59.348118
H   50.641434   64.818558   27.303398
H   31.971336    1.588745   44.631615
H   50.764214   29.034000   42.189896
H   18.306549    1.691628   54.886475
H   22.214497   67.850700   30.218000
H   87.221878    8.405674   37.564735
H   11.459774    2.360942   24.284389
H   91.217216   91.330200    8.422808
H   66.101089   34.678417   59.909653
H   53.235451   40.258926   53.567986
H   19.970695   51.857681   69.003708
H   58.982872   15.311397    9.778131
H   68.801521   87.060822   76.291634
H   11.996750   68.511810   33.332527
H   46.823902   45.262756   44.240360
H   73.981407   87.457100    7.142937
H   37.187103   47.247959   41.644341
H   98.075066   16.304577   43.062782
H   42.619366    1.359410    6.597393
H   86.109329    5.854121   17.448637
H   58.203918   97.561295   95.894028
H   30.327667   29.022924   15.527088
H   34.774044   69.035110   53.425381
H   50.757786    1.046685   39.696739
H   21.383886   28.171371   17.705467
H   32.413891    4.024532   77.164391
H   15.326486   92.984413   34.635384
H   58.873192   92.323189   78.374863
H   49.154724   53.692150   17.612936
H   64.297417   72.271828   77.884712
H   27.577705   42.829380   84.611107
H   11.113180   61.701241   57.688004
H   80.212700   29.706701    7.348925
H   75.034210   86.410698   63.100216
H   52.441917   51.398788   44.190922
H   18.829405   68.783035   65.107491
H   23.101332   27.535685   66.872688
H   80.234840   97.132187   31.497442
H   66.699654   79.765923   86.773140
H   45.382618   73.266754   35.151314
H   56.286465    4.454160   23.089186
H   90.783623   59.483803    9.329860
H   44.367176   44.158779   22.046829
H   43.477406   84.588448   62.705997
H   47.947426   81.989059   16.225327
H   27.154566   27.117065   51.703590
H   56.288334   92.829308   70.692764
H   70.624268   35.737835    7.881977
H   94.668564   11.606056   62.635483
H   52.102280   64.126091   39.777946
H   60.457458   93.687813   90.862259
H   59.758430   75.992752   43.848797
H    0.882772   95.503677   38.551842
H   15.274624   37.600388   45.705467
H   67.642731   19.745132   55.493881
H   33.990341   47.076225   73.118019
H    3.535450   46.586906    3.219252
H   67.292488   90.480003   77.607506
H   47.224037   98.476051   98.277458
H   16.884344   78.820129    9.596630
H   19.509270   67.922409    8.319495
H    0.809788   86.483292    4.976719
H   48.232559   92.454735   99.877991
H   94.055779   35.458660   51.581211
H    1.325176   22.287010   21.123896
H   49.549225   74.727638   39.158794
H   10.799897   93.627945   50.848152
H    4.649236   29.897257   68.183647
H   46.487553   64.037987   36.649632
H   46.944363   50.186882    6.623083
H   73.371307   93.114189   63.096127
H    3.779864   50.921726   27.511921
H   56.319656   60.974663   45.022186
H   28.122379   38.396008   32.643353
H    7.424824   49.981155   13.109003
H   73.539253   21.961615   13.810656
H   10.773977   87.549904   82.960457
H    9.431747   93.776321   62.349388
H   31.015324   41.415440    2.962471
H   25.994726   39.297050   65.552567
H   70.137527   34.758842   86.583122
H   73.965767   45.119118   20.992298
H   88.444504   73.032990   55.708004
H   60.076694   21.003653   52.066845
H   43.472034   61.765633   50.308777
H   41.810127   54.027245   87.071190
H   32.379807   66.673286   86.219734
H   41.360737   70.815704   36.330101
H   66.688568   60.941216   21.944359
H   92.673019   18.238981   86.521774
H   10.099885   23.738861   41.940086
H   66.743248   40.647938   71.253456
H   93.954514   56.075413   12.832905
