100
TIME:    2.723, STEP:  2723
H   33.176422   72.308372   96.653030
H   25.525108   52.382462   49.765980
H   26.560698   69.807617   91.373863
H   81.933655   20.462820   90.906067
H   70.781387   91.017975   91.873627
H   85.794563   98.258064   48.414043
H   10.258579   45.208244    3.395031
H    5.863869   24.176287   58.178036
H   86.691399   24.488159   28.683487
H    0.429540   55.481606   14.318538
H   46.968201   75.808411   77.455856
H   51.912849   60.180573   99.103462
H   70.051216   96.961929   54.484337
H   20.254005   96.682808   64.462822
H   13.622036   26.797709   19.879717
H   92.037918   73.565521    7.008398
H    5.139642   62.074547   21.273783
H   59.334114   62.281151    5.142353
H   87.677345   92.585541    6.821781
H   19.157249   47.987797    1.727162
H    2.690016   85.134064   83.335617
H   23.437012   47.698807   87.389694
H   49.388054   72.476234   54.442413
H   66.045303   69.339813    4.839304
H   32.192986   70.213715   56.652367
H   34.173306   46.471775   33.944977
H   27.271122   29.284662   54.001385
H    2.783615   83.540154   56.781498
H   70.379700   96.144142   28.453955
H    5.405837   23.446060   99.859764
H   23.221697   66.231277   93.943855
H   37.688972   77.277107   47.182304
H   62.163219   69.254692   43.106300
H   93.153938   24.175949   57.035126
H   13.084716   53.082245   90.540657
H    9.308419   98.390129   11.279469
H   40.970100    4.812941   23.026915
H   51.443367    9.115406   14.596668
H   30.133980   22.086882   80.433472
H    6.717630   57.265831   52.274837
H   49.153156   49.614956    6.498610
H   86.893425   34.067986   30.729445
H   34.695629   79.828964   98.159172
H    5.477644   58.409866   46.974190
H   20.455877   24.455936   89.125099
H   42.957142   14.853840   94.226021
H   63.007137   72.923553   51.597763
H   56.384838   23.419149   37.061714
H   44.624611    6.931357   35.852295
H   82.992912   72.191093   93.214996
H   43.336872    6.755175   82.127716
H   37.464725   11.064762   95.301201
H   65.365105   37.797607   44.722282
H   13.636433   62.782684   51.974579
H   23.982048   97.217484   23.511122
H   96.973312    9.670208   99.929459
H   68.876915   10.976008   14.967531
H   23.296234   19.733849   43.418167
H    5.034873   53.822384    2.436621
H   79.328461   37.087093   86.161995
H   31.470098   51.938694    2.090095
H    2.269768    2.597305   72.148697
H   58.933201   21.465162   46.749924
H   30.022509   56.606941   53.213512
H   40.402821   43.362743   49.149277
H   34.066902    6.904479    7.190130
H   69.097084   42.503368   98.527969
H   92.269402   73.268311   96.377747
H   92.615440   54.128914   89.450417
H   85.552307   85.102119   95.999268
H   35.565758   10.126494   29.485332
H   49.442879   61.154037   55.987938
H   29.447405   83.615623   91.927971
H   70.267174   77.063354   41.372566
H   93.458763   32.519596    7.819498
H   90.030464   82.091911   12.706652
H   14.185354   90.535294   39.207447
H   59.911816   72.671333   64.822754
H   92.091080   45.520420   48.061226
H   65.984291   60.655094   86.332382
H   64.169144   57.452343   42.735691
H   45.634148   62.010818   59.082008
H   90.084335   52.708038   89.252258
H   37.488506   45.172211   14.713806
H   19.741852   78.559647   83.788185
H   88.620483    9.073914   30.876720
H   49.017738    5.368652   53.386490
H   99.790085   87.284561   67.426308
H   12.192373   42.559486    5.922194
H   25.588440   97.242142   21.558983
H   35.459015   20.466373   90.966507
H   79.765503    0.292308   85.408546
H   59.996876    9.224533   29.574352
H   10.415535   78.403511   10.416963
H    9.510895    5.819130   78.658775
H   18.830261   88.203438   26.802658
H   46.463181   23.947735   80.587227
H   16.862608   39.422394   12.465986
H   78.996086   48.588078   16.957764
H    8.348801    8.760715   35.422150
