100
TIME:    6.435, STEP:  6435
H   82.149734   31.899809   93.254593
H   22.756199   53.568317   83.853127
H   90.378067   36.863152   47.806698
H   82.556702   67.528290   87.438599
H   37.533340   88.551056   91.226669
H   28.230091   94.236580   16.025528
H   15.712298   95.858910   93.678459
H   14.107986   45.310703   17.353031
H   95.443291   67.594360   95.026085
H   98.996651    8.781101   59.674015
H    1.687008   25.168524   19.898071
H   10.233551   46.243824   34.878212
H   33.436111   72.453224   85.607597
H   36.457664   85.241402   46.947071
H   58.765511   95.226921   41.443073
H   42.786972   48.900429   98.879395
H    6.642654    7.596883   59.191780
H   38.676662   81.712051   76.454140
H   45.492512   48.310684    2.384124
H   19.148041   69.155556   54.457329
H   82.414703   15.592358   82.585457
H   79.310059   52.626541   71.278595
H   99.825676   42.286781   48.238037
H   21.153336   13.809542   29.154036
H   99.432564   75.832703   84.063820
H   17.211962   36.424965   85.298576
H    7.181267   74.982925   27.647512
H   89.575272   56.803749   79.480606
H   51.093910   32.925182   52.985901
H   47.739170   31.573753   94.953049
H   69.314964   99.094978    0.262287
H   72.067108   74.717789    3.543877
H   23.629509   97.667610   77.512573
H   49.996178   83.993423    0.655818
H   20.806931   72.450264   16.560976
H   32.020794   89.445274   99.194679
H   96.999550   68.871704   15.517993
H   98.023277   41.190372   76.541069
H   73.450165   41.207939   20.712900
H   57.087643    9.759794   44.327114
H   95.465454   76.982475   93.951515
H   57.907242   66.837997    8.478517
H   66.666901    2.089484   66.279778
H   68.445953   20.654013    9.916312
H   98.467506   77.998917    6.770305
H   95.061272   85.654617    9.304110
H   92.008102   74.794998   87.234566
H   56.583080   61.648392   66.739258
H   53.129372   99.504128   87.779282
H   60.844166   28.677416   33.596405
H   43.059734   48.386002   21.261593
H   17.863930   66.620361   51.618538
H   42.354092   59.321045   29.133539
H   27.672424    2.207149   15.775161
H   28.431034   22.537308   55.082409
H    1.610544    5.764728   73.564209
H    4.203878    3.867128   68.009483
H   46.891998   69.181145   47.805161
H   97.792374   10.664231   17.468086
H   34.375069   22.403355   80.583885
H   65.625389   79.313736   12.673361
H   70.527199   68.046005    4.189322
H   10.932165   68.170204   92.203186
H   84.919846   76.817276   52.431637
H   87.739029   46.891811   94.832161
H    6.035084   22.370018   26.671263
H   71.276321   70.835022   77.743729
H   35.856407   85.561440   73.832809
H   77.622322   87.408279   56.641895
H   60.754112   71.805107   88.182861
H   17.692013   57.563843   84.956947
H   43.371738   37.959976   27.762016
H   87.416809    0.006462   96.752747
H   88.550209   42.147923   20.807535
H   72.426994   37.815495   89.214371
H   77.786400   19.995499   62.934235
H   51.218349   68.835960    4.867246
H   34.308331   29.951017   69.821953
H   70.093239   34.617100   89.476418
H   83.946854   58.474861   66.540184
H   36.795578   95.854691   64.593887
H   24.174559   86.202759   48.651966
H   24.902946   14.734067   42.780647
H   92.867500   62.816063   75.678795
H   38.998573   46.372871   23.951187
H    3.186460   45.423035   88.649033
H   96.933815   35.475868   30.389090
H   59.521507   90.138611   28.856880
H   89.226913   35.881203   75.560799
H   97.397812   44.523533   54.251213
H   87.369347   20.903736   69.357224
H   54.423733   79.453003   56.135910
H   97.949509   20.600803   16.633005
H   69.184242    3.577132   60.701157
H   45.335381   73.322098   63.955570
H   25.426239   41.619965   35.072968
H   51.822136   36.970993   67.106583
H   25.856287    4.863392   49.697906
H    2.164652   64.590096    6.037712
H   38.913364   13.502785   77.836891
