100
TIME:    1.204, STEP:  1204
H   35.900307   11.608345   98.043716
H   67.778786   70.025414   53.948177
H    0.450979   60.524548    9.202934
H   81.678696   83.044762   74.168938
H   84.386932   69.263435   33.059044
H    9.346214   99.903709   97.981377
H   89.868904   42.637974   84.607140
H   25.254272   92.763657   97.646141
H   24.031380   70.533676   24.299189
H   41.937111   33.671013   54.839119
H   88.261887   14.687825   23.774431
H    9.885632   84.041115    7.227355
H   66.674591   88.863579    5.461530
H   95.466942    1.365108   48.865726
H   95.145302   62.478374   92.896774
H   53.114258    6.425282   33.098129
H   27.266941   61.619431   82.976875
H   26.873184   36.150269   57.805954
H   64.012505   28.862551   26.794085
H   60.078186   80.245956   98.306602
H   92.829575   36.355576   24.565987
H   77.795158   45.689079   16.736370
H   69.668892   84.830162   97.901352
H    7.176917   51.121830   17.654434
H   86.522453   90.687325   45.445755
H   41.138325   91.734116   76.321426
H   58.257362   92.427933   23.858267
H   30.951286   12.638209    6.569972
H   37.350906   58.328190    0.259404
H   47.159588   61.040939   79.103325
H   63.463688   30.013159   14.137939
H   41.778385   19.248161   87.803780
H   55.166721   80.392113    6.262784
H   28.973778   63.383308   21.028543
H   50.844521   67.906960   98.044861
H   77.237823   79.064529   16.501539
H   95.278526   60.443214    3.335879
H   14.228540   36.917538    7.405137
H   96.592270   54.806145   26.729073
H   49.789673   99.468269   32.761997
H   52.960297   97.495094   70.710251
H   23.412529   65.895912   59.366047
H   21.611593   70.719971   88.439430
H    2.476336   32.948723   98.455086
H   52.216850   84.386856   59.139412
H   62.554226   85.881233   88.060646
H   48.793201   90.689316   37.911324
H   56.303715    7.779726   43.074612
H    0.226750   32.733887   96.445236
H   51.141521   49.075047   99.456505
H   43.452763   53.405266   66.111649
H   63.644981   52.017323   95.020737
H   33.854980   28.989929   32.942917
H   48.809200   87.560646   84.946243
H   44.909988   64.055038   10.622889
H   95.072708   11.266600   51.639801
H   72.579132   54.806129   70.497841
H   36.405945   63.184776   82.542801
H   85.233894   89.640015   19.051247
H   79.566711   20.330992   29.364952
H   35.650402   22.580513   20.522842
H   56.178833   16.738693   40.878151
H   55.900383   25.049973   50.959084
H   25.715391   48.343948   94.450386
H   80.111748   64.683769    7.686997
H   27.381538   82.418709   17.375227
H   90.969040   89.988312   25.191917
H   97.197105   86.394760   23.760763
H   16.908554   63.274567   84.719734
H   54.775261    8.700207   99.197845
H   83.799385   13.480658   47.707340
H   74.691177   11.567074   44.773163
H   28.489159   58.749966   30.876301
H    3.691017   73.189087   31.651299
H   20.221962   30.356848   92.668877
H   54.124401   84.738060   14.916081
H   76.270897   22.192064   12.338398
H   88.546432   71.995186   80.932816
H   19.262941   49.975437   31.113487
H   40.479172   43.382065   17.195374
H   34.443295   41.737591   51.948635
H   31.659927   52.090591   86.099442
H   93.978111   27.352259   44.574863
H   32.994373   15.189431   53.457924
H   93.704132   73.574036   31.038063
H   23.580547   53.281017   25.392830
H   47.567162   15.812325   80.954407
H   75.337189    8.899469   83.226753
H   80.668648   27.135031   18.349342
H   59.888260   59.741379   67.255684
H   73.295174   38.444241   58.888012
H   67.370766   86.058647   56.462120
H   62.534843   63.704529   12.059433
H   63.599953   86.264427    7.998613
H   35.776646   41.883003   43.752556
H   93.367020   48.186028    5.260689
H   67.034500   36.775402   67.945923
H   11.285827   26.489014   36.772461
H   51.356194   42.040264   44.197308
H   14.013901   47.778133   81.723335
