100
TIME:    5.888, STEP:  5888
H   19.141024   82.062614   93.755386
H   37.862190   23.925520   49.363377
H   80.971497   97.510803   54.229374
H   82.464890   90.063995   17.421173
H   42.432770   44.706589    6.058020
H   36.714367   94.829185   61.855572
H   44.379726   58.924816   50.902348
H   57.101105   97.989426   67.578148
H    8.889656   20.186325   29.457903
H   13.938921    0.926399   38.256748
H   52.567612    3.159155   72.586876
H   31.112465   18.825382   73.814903
H   68.341415    5.530991   39.960381
H   63.542244   86.927406    5.318615
H   52.118172   44.087357   67.743195
H   64.780151   96.742897   44.285858
H   50.629219   71.415230    9.396215
H   26.978964    8.328552   95.417519
H   36.974850   25.361826   73.563782
H   33.883888   80.773964   17.214991
H   14.874443   70.049011   97.433983
H   26.868637   51.900391   17.860657
H    7.129540   46.735497   63.887833
H   71.978600    7.265841   69.780167
H   18.995682   19.211617   80.024086
H   19.705496   52.596420   36.736649
H   54.350739   97.718948   16.792814
H   35.729588   31.271629   61.401360
H   39.200066   83.297577   78.843536
H   26.764793   45.111870   51.467484
H   47.786049   50.043446   43.539116
H   37.529057   89.833405   54.182396
H   85.100090   37.687782   28.234495
H   26.884098   34.122581   23.698713
H   34.412430   13.831764   83.266266
H   84.471588   46.602394    0.914522
H   44.534637   88.903442   72.416725
H   20.631493   51.202068   37.941059
H   96.536743   53.126823   73.721443
H    8.610010   60.969318    1.289577
H   32.848007   58.212357   81.064430
H    4.005355   64.692932   80.551689
H   61.957630   98.808533   26.770828
H    3.375965   11.472799   56.432678
H   45.915051   99.583115   59.962505
H    2.121716   75.221420    7.081839
H   87.734665   45.047867   81.984581
H   56.553867   56.014465   32.893970
H   37.141541   44.805176    9.598517
H   49.366909   20.350477   71.848801
H   43.097294    1.194711   15.496118
H   91.278816   17.376713   87.525429
H   31.006947   56.149353   60.904522
H   40.338326   11.132749   91.638268
H   71.983543   74.601700   50.429203
H    0.929249    6.340118   92.185379
H   69.524315   19.651268   15.985390
H   87.623199   20.838758   61.894150
H   54.649925   87.551170   59.459618
H   70.470505   80.359604   96.141869
H   31.120663    4.753456   55.320179
H   89.941292   73.137405   28.940620
H   73.797630    5.496172   29.712616
H   47.358490   73.837555   67.283417
H   66.029633   90.579330   43.893116
H   39.636711   49.563103   94.327843
H   15.163170   51.924389   51.335220
H   73.641273   54.278538   47.683048
H   50.360378   26.712196   90.947144
H   49.674057   44.291862   89.334686
H   35.062920   94.781143   91.517342
H   88.474625   56.113739   87.713760
H   23.082912   27.061829   10.778099
H    0.594100   76.766808   53.308311
H   46.054714   37.035091   47.748672
H   64.857582   84.938652   99.742432
H    1.546760   16.212988   95.180275
H    8.609279   65.719872   39.612389
H   43.863209   36.223812   83.375084
H   10.772142   88.272072   13.664615
H   26.091120   90.195724   31.900431
H   83.122574   82.655334   94.409416
H   90.303581    5.587146   90.686661
H   55.233841   16.007854   25.639408
H   65.632439   80.587563   76.976868
H   15.777042   25.329391   50.663849
H   60.400932   75.247215    4.306023
H   50.724236   33.909664   34.528366
H   77.875595   66.337791   80.034554
H   45.760662   67.029465   34.699402
H   64.983879   91.366852   57.805584
H   13.951273   38.312820   45.715233
H   62.885620    4.187299   74.332657
H   16.320293   70.391304   23.817720
H   54.792030   22.318218   51.385654
H   80.246231   63.220856   63.326065
H   95.240929    5.581000   98.564758
H   26.912127   77.795944   60.677803
H   28.222168   62.231152   51.856140
H    4.938360   27.539608   30.530872
