200
TIME:    0.225, STEP:   225
H    9.010229   62.524776   15.083086
H   27.830589   32.659184   89.288239
H   18.452089   68.481606   44.609367
H   17.336878   76.798439   44.891941
H   15.369402   83.349075   53.874165
H   90.106567   53.222118   65.993462
H    3.141912   55.314774   49.361027
H    2.552485   88.238647   25.604767
H   86.819305   87.731102   48.085342
H   11.389233   75.109001   96.664116
H   11.670838   94.273750   92.487656
H   30.715775   41.622471   12.027550
H   10.806018   86.510063   61.906456
H    5.112701   53.143650   41.542995
H   20.346081   71.829117   43.015499
H   29.737610   26.584404   54.646587
H   83.501770    7.015984   16.160322
H   36.918377   82.445946   43.787415
H   64.526344   30.244967   42.263020
H   90.008530   79.910667   38.052197
H   57.905060   76.009468   26.527691
H   90.362968   48.241020   71.152733
H   95.454391   62.650520   49.496124
H    8.290523   87.922447   91.633118
H    2.594484   12.100678   45.945591
H   18.673510   61.670631    7.451963
H   98.605309   58.495777   48.478760
H   94.166046   69.510651    0.691803
H   10.436822   56.985664   38.426197
H   93.727257   20.362514   99.144775
H   13.381076   50.822575   16.176474
H   32.198822   63.154770   93.233826
H   27.485733    8.662772   72.995934
H   96.922997   63.561554   38.028114
H   48.708271   90.420822   34.333187
H   33.551235   50.263958   79.304474
H   85.833939   74.752754   85.842323
H   33.656883   44.367302   15.841871
H   53.625404   46.937744   44.098209
H   90.226601   39.750172   64.282318
H   80.499847    5.924503    1.026398
H   12.592699   43.421429   40.275913
H   76.971939   88.126511   49.771297
H   37.314682   62.505482   18.211864
H   28.264511   75.837502   43.822609
H   41.270878   14.228869   42.524742
H   79.691483   26.947063   95.850105
H   90.481003   65.550835   48.186905
H   86.500267   29.321392   61.155518
H   62.654182   17.733812    6.347037
H   78.565063   70.685974   28.463196
H   21.711523   35.439800   63.219090
H   51.772274   94.851501    7.731980
H   22.629839   81.867157   81.481033
H   77.833817   76.718529   91.258469
H    5.497944   72.719589   78.157043
H    5.473292   16.688698   49.815495
H   67.244797   58.230694    5.574172
H   28.497677   74.187698    6.763693
H   43.450218   96.073402   67.271523
H   50.468098   15.669060   42.674755
H   89.667183   16.389349   48.951225
H   71.034065   24.895733   85.390976
H   23.762602   65.130936    3.332600
H   71.107246   75.855453   17.316227
H   39.328098   15.978364   32.593674
H   86.735451   23.478388   85.525215
H   97.425423   91.415825   86.974579
H   15.988935    5.650544   62.169662
H   45.323311   41.368546   50.983395
H   58.471745   76.332695   72.880112
H   32.562035   24.216110   44.869827
H   77.017715   25.403774   99.998039
H    7.376686    9.294396   60.135979
H   78.962387    0.628765   68.318016
H   52.934616   19.606178   62.975491
H   95.490982   29.391783   72.357750
H   27.110823    5.696796   48.480461
H   11.416519   29.025120   35.270679
H   68.502113   90.750603   94.972992
H   42.731464   30.355564    1.356274
H   25.976908   68.859985   88.320946
H   11.058235   13.501763   90.718597
H   25.163216   61.369102   93.362640
H   39.442371   99.165237   58.207287
H   24.244612   86.299149   28.095074
H   35.182934    2.752852    1.736936
H   75.456230   19.102615   10.876422
H   65.229134   72.013359   77.111740
H   23.519260   85.374817   55.030529
H   41.871616   34.763306   80.821205
H   84.159912   88.403854   98.040543
H   46.547127   17.031271   96.157036
H   60.700493   94.972549   68.692795
H   24.744814   57.129105   67.315048
H   69.893257   27.373928   29.766953
H   79.102119   14.797991   97.683205
H    7.307053   28.205622   48.451550
H   37.357796   69.928291   52.828091
H   66.943619   97.683624   27.246744
H    9.197012   80.011658   68.233467
H   90.014519   76.429634   65.947342
H   22.868460   37.718124   30.293215
H   21.155125   67.911789   89.566704
H   25.358624   27.669857   24.601219
H   86.829269   27.507278   44.593037
H   64.947739   29.910528   56.329041
H   64.839546   33.698452   19.321621
H   72.415359   40.278996   98.407265
H    3.884880   28.269529    5.463850
H   46.997189   96.197128    0.785297
H   85.391655   62.968044   90.340302
H   57.354565   80.100594   94.261642
H   63.274986   19.720728   75.340790
H   64.350822   81.343948   27.298601
H   14.650652    6.236135   78.257698
H   33.191662    8.231495   84.005234
H   40.847218   26.258163   34.278343
H   18.292683   57.150448   84.281006
H   70.386780   46.375484   48.783199
H   40.398018   21.659756   88.011353
H   18.936317   27.835369   47.746937
H   31.874762   22.455196   23.584175
H    4.298311   67.858643   18.522066
H   77.365211    9.323485   93.309235
H   47.172802   61.941986   25.821007
H   95.759483   49.119888   71.634064
H   75.756775   87.452324   34.875889
H   92.283127   53.026634   85.232101
H   67.018150   24.220442   66.246063
H   48.003448   85.721283    2.838115
H   82.275757   85.902603    8.973248
H   92.486732   81.864944   97.263573
H    1.656108   12.618363   49.522442
H    3.685071    1.641340   57.106163
H   62.757591    1.646101   83.902588
H   68.867882   86.526299   54.591934
H   91.090401   64.689217   83.435379
H   45.921158   44.123863   71.553635
H   43.439819    9.809349   95.874283
H   49.875050   63.509777   14.425415
H   57.928833   40.555065   45.897217
H   55.487698   56.484901   99.890190
H   58.400414   27.070688   77.875862
H   39.596867   70.264549   48.578053
H   45.390530   61.717266   30.564571
H   44.376488   96.843483   47.389297
H   43.062027   73.977051   68.911034
H   64.784271   65.418503   98.093575
H    8.983818   88.511032   90.558266
H   76.748940   61.055202   51.457436
H   33.155941    7.524743   48.622395
H   75.478920   32.399464    3.991193
H    9.513368    0.798436   76.323196
H   13.017731   53.482903   60.481815
H   63.056808   43.491711   53.599476
H   59.154247   60.433777   80.578171
H   45.832806   36.900566    9.372713
H   13.068320    1.790851    3.161183
H   63.847847   57.555847   77.665436
H   53.808605   85.018784   83.814713
H   44.308376   23.134035   35.673923
H   64.573677   35.223919   37.238289
H   10.724090   19.739006   71.840576
H   59.097809   21.579386    9.677159
H   11.655259   64.916466   62.383820
H   75.158127   97.809578   52.062683
H   23.619110   30.250095   47.392445
H   93.869141   28.218990   36.892353
H   25.788425   10.572910   90.572266
H   79.651550    5.455434   35.977333
H   46.681129   66.004211   57.412052
H   37.383121   78.098770   90.846085
H   71.408806   74.903854   73.896530
H   72.135040   95.149384   99.936722
H    0.444259   47.579826   23.272354
H   35.571838   52.452572   86.280487
H    1.597061    9.186554   64.688400
H   75.985176   21.728266   69.310280
H   87.014069   54.294197   86.173401
H   81.691673   84.651886   42.068058
H   18.925114   30.087734   69.068565
H   66.325684   90.181320    5.773149
H   51.154305   25.192558   76.638451
H   85.328987   88.984978   78.458633
H   98.946404   36.097198   83.879128
H   30.829746    4.781508   98.932816
H   91.141685   66.589180   25.001692
H    7.052767   61.106514   66.371979
H   49.340801   58.354908   65.513504
H   47.103699   31.520618   79.408577
H   47.775883   84.521561   24.815447
H    3.767286   17.167170   57.462605
H   35.365635   62.932384   33.010986
H   85.409363   54.925331   21.865351
H   75.291519   10.346639   29.771879
H    9.361573   85.150398    2.960485
H   29.345425   97.704300   47.389744
H   12.113338   11.569923   78.687920
H    8.164191   35.500916   97.957191
