100
TIME:    3.049, STEP:  3049
H   11.131077   42.412437   96.354568
H   16.456841   70.058014   70.330002
H   32.164322   93.261749   87.548576
H   81.988373    7.030790   73.038147
H   67.861435   17.148296   83.034180
H   80.740608   97.904884   80.698875
H   93.172615   67.221931   28.888710
H   80.240906   52.378452   28.244793
H   78.677696   93.144379    8.162748
H   91.520515   60.162483   27.085245
H   16.644470   88.925812   46.054111
H   39.469475   76.521362   75.898048
H   49.314850   77.238571   22.083427
H    4.112649   95.677986   89.269981
H   17.587849   97.678665    4.208830
H   78.930466   45.052460   79.947609
H   78.924660   83.638199   50.950848
H   66.299889   46.427849   93.840027
H   92.756172    6.261074   23.995798
H   10.375008   41.065968   23.922693
H   83.344742   52.680435   74.486221
H   54.690948   48.131577   59.627762
H   45.035484   69.824898   45.115479
H   35.756393   73.249664   80.628654
H   20.534298   44.358856   59.057472
H   32.678509   36.759327    3.388987
H   99.159760   15.733235   60.470547
H   75.275566   98.756737   67.557640
H   77.468170   25.720953   13.044615
H   17.905701   15.377591   25.775047
H   36.052219   95.465622   68.151772
H   58.272896   68.268532   17.002831
H   85.125092   45.402611   72.474953
H    6.928277   94.300179   43.300903
H    4.980737   28.439240   10.392059
H   37.653347   23.999399   10.158994
H   72.237129   92.874008   48.714535
H   37.970299    3.148908   37.600658
H   16.372398   14.984732   48.841278
H   76.011169   26.745829   77.923805
H   26.873880   60.799816   14.178964
H   57.594414   48.700081   46.045410
H   37.503658   81.783890   21.706398
H   84.660172   63.874207   78.848595
H   92.177513   11.594501   17.022093
H   38.751316   21.071796   95.549202
H   65.554977   90.652191   54.729126
H   56.402248   26.775602   57.232765
H   54.153008   79.931084   22.847692
H   89.827690   77.150536   70.412506
H   43.312000   75.282120   85.565002
H   53.308079   80.815109   73.901482
H   72.125267   39.687866   25.787769
H    6.087833   57.462601   66.360443
H   98.026901   25.790619   26.281034
H   97.381210    9.327599   88.831650
H   89.545403    1.568902   45.972771
H   99.021721   88.946945   35.021439
H   30.744881   67.596405   77.410469
H   57.815048   62.145458   76.889778
H   52.034157   36.779316   76.671249
H   90.699638   99.562424   57.398590
H   81.057442   99.224419   24.391403
H   52.409531   58.380302   44.361629
H   53.343632   17.325130   79.509041
H   14.040169   90.698097   26.464836
H   42.941872   53.772793   14.267867
H   69.750450   91.912231   11.962432
H    8.862852   30.704628   69.005775
H   92.158264    1.497772   95.312805
H   25.213287   87.945488   25.574238
H   22.563459   50.334793   79.855774
H    8.190699   67.488731   83.571037
H   63.093822   56.433746   21.997414
H    9.176827   32.984699   32.533360
H   97.735756    2.984463   90.770691
H   43.784565   62.280746   44.972736
H   75.227890   51.354702   82.824982
H    7.724474   44.562855   51.699974
H   49.996681   42.899097   58.247116
H   70.546280   60.824963   62.220280
H   70.094971   64.139847   31.822477
H   10.709044   58.149994   20.301945
H   59.915432   73.068451   84.937775
H    3.867805   58.169010   52.186043
H   81.119141   21.048454   53.515057
H   70.790535   81.665779   68.931381
H    5.036848   61.184067   64.033791
H   18.958405   24.408548    3.255001
H   96.765533   83.831253   33.212547
H   48.800262   38.068981   97.851028
H    3.886496   24.808092   91.621529
H   80.901474   19.001608   54.788292
H   41.925541   98.176613   32.397415
H    3.873923   76.619171   86.150169
H   45.756500   75.329781    9.964209
H   20.587082   42.656322   61.838844
H   18.058943   42.198090    7.249743
H   63.466118   49.993336   89.650734
H   28.596170    0.393057    4.019277
