100
TIME:    5.132, STEP:  5132
H   70.266273   51.390755   94.447525
H   58.741707   82.959503    1.694082
H   67.970825   43.120239   63.106052
H   82.337997   21.212189   58.861961
H   49.204193   84.109940   26.554676
H   48.440350   95.648216   86.985405
H   84.001808    7.874048   91.782089
H   16.521217   32.585094   36.990864
H   27.473579   92.872421   77.046471
H   34.595268   90.071281    8.651854
H   22.888885   72.739761   45.409054
H   59.968880   80.931389   27.627287
H   16.583450   51.248421   15.080566
H    0.975371   89.257607   47.788223
H   42.924263   11.616683    4.080912
H   95.176575   62.865555    7.040001
H   11.422262   21.413120   40.574554
H   10.812221   45.111813   21.624140
H   25.201057   93.645905   33.735584
H   54.250069   96.831581   65.743050
H   59.736565   45.310974   17.953354
H   54.390182   50.896790   82.241089
H   17.224434   52.883995   85.517166
H   42.221310   98.221893   25.925797
H   46.033844   79.166672   74.440834
H   23.151770   74.943909    7.828232
H   19.540400   29.145309    1.791777
H   99.519142   95.984131   36.409386
H   22.761772   14.707338   14.579937
H   97.777634   63.822685   91.368233
H   18.031208   82.251694    3.351433
H   89.794930   10.721955   24.169075
H   31.848080   93.001198   60.128044
H   94.940186    3.405613   55.547874
H   53.203995   70.980209   37.230865
H   18.753607   87.388664    3.292126
H   72.023926   16.590664   12.846738
H   51.875813   65.038643   84.592476
H   28.448895   69.599724   46.983124
H   79.816002   31.742367   41.809574
H   84.516159   32.274460   63.253399
H   70.385551   42.184982   43.903309
H   55.445759   94.275024   72.162819
H   51.647182   98.783203   82.515671
H   11.493090   29.409340   95.269188
H   11.877285   60.801868    4.009963
H   81.828415    3.932933   74.728661
H   56.513493   48.227905   86.117027
H   15.045013    7.418263   39.756622
H   33.511166    8.843672   24.725578
H   43.153080   74.181900    7.526429
H   54.537788   87.528198   37.155998
H   15.324300   51.765808    4.809935
H   57.843666   23.469551   58.277184
H   32.177979    8.348506   43.998081
H   99.987503    7.135357   17.921417
H   21.598816   41.465172   44.083412
H   43.915909   92.233315   81.366318
H   95.027275   55.608795   17.496197
H   20.360271   22.250416   17.644295
H   83.430908   39.910107   14.265422
H   16.771559   80.174149   63.149574
H   22.471418   57.084763   81.553802
H   95.444496   69.719330   87.805328
H   36.020042   50.960331   73.489769
H   86.079216   87.146233   49.627220
H   75.818390   25.789700   14.835083
H   25.863579   11.041545   11.541877
H   12.679325   81.033546   38.362846
H   34.360489    6.266226   90.926605
H   59.068596   46.219025    0.584500
H   50.809723   81.203766   32.362442
H   72.375244   64.454689   30.163750
H   17.234341   24.615067   98.228111
H    9.606326   35.956509   90.438080
H   46.983376   36.485672   50.610332
H   32.906986   81.738960   81.810463
H   73.091019   15.151081   97.859871
H    7.612121   38.444424   74.942528
H   47.842255   29.453339   78.794891
H   11.297113   82.374557   86.716866
H   26.385605   77.743423   57.642967
H   42.485741   92.944519   18.689077
H    3.223791   51.315598   94.688568
H    2.442807   27.875114   50.262520
H   33.178562   97.560463   98.164719
H    9.909414   30.214722   68.257080
H   38.562637   94.414703   42.372932
H   62.187119    8.431036   86.217659
H   12.600560   98.129562    7.674994
H   34.045280   50.544109   41.840252
H   58.014927   81.454941   31.312979
H   14.424426   81.507210   15.870014
H   43.255463   24.526007   72.842049
H   67.861916   90.036003   34.012974
H   17.803787   93.075104    2.374306
H   55.248192   62.195629   42.043137
H   25.703009   59.933594   73.910835
H   64.236450   58.972332   15.177765
H   57.977970   46.937458    3.358249
