100
TIME:    2.638, STEP:  2638
H   38.924713   80.103325   96.730850
H   27.889534   47.773582   44.404194
H   25.099630   63.692276   92.371254
H   81.919388   23.965036   95.564880
H   71.542725   84.204849   94.178391
H   87.112312   98.350151   39.995884
H   14.713278   39.468384   96.747887
H   12.544701   16.822962   65.982552
H   88.780861   32.660538   34.034046
H    2.752138   54.261131   10.989795
H   54.874695   72.388229   85.643799
H   55.157288   55.919937    5.153723
H   75.458397    2.104580   62.932327
H   24.462761   96.944801   57.994099
H   12.588005   34.390106   23.965582
H   95.455505   80.999908   14.064375
H   11.974944   56.452713   13.535897
H   57.517670   66.414680    8.089455
H   86.353111   89.020096    2.343833
H   21.447098   49.792568   95.939980
H    7.733967   93.595673   85.642975
H   15.287979   47.585968   94.628235
H   50.522926   73.167534   56.874283
H   73.942719   68.320374   11.152316
H   35.233147   76.955505   56.025269
H   34.563053   49.004162   41.911781
H   34.600891   32.818081   52.314640
H    9.955523   79.572639   53.971554
H   68.531479   88.432198   32.471764
H    2.146668   25.549789   93.102409
H   19.876417   58.609287    0.668784
H   32.321999   79.625969   55.051186
H   56.175632   75.473793   35.448830
H   89.562553   31.965714   60.616135
H   15.197686   59.507568   85.364342
H    1.917817   91.713188   11.571618
H   32.817825    7.926058   16.329222
H   54.956284   10.671154    8.598543
H   33.722122   23.938669   88.670700
H   14.723669   65.223457   45.586872
H   54.961758   46.698658    4.495641
H   94.532738   30.252869   26.736315
H   33.963474   79.319244   92.019188
H   10.905291   56.985115   38.663681
H   27.828981   27.809322   81.851540
H   44.053753   13.232594   93.881020
H   62.342426   68.301056   50.781303
H   56.380299   22.544001   31.802391
H   42.140213   13.970821   39.243294
H   81.210838   70.897987   99.160431
H   43.343357   14.961599   81.231491
H   33.333790   18.952126    0.880978
H   63.602341   37.304749   49.659302
H   15.604626   64.169746   48.223663
H   30.749130   89.766235   22.789991
H   96.866959    9.759539    2.823059
H   63.487957   13.428792    6.883187
H   29.625580   27.761288   45.607498
H   98.331154   50.230999    8.962137
H   84.937973   30.553473   88.579597
H   26.107988   55.891293    8.717263
H    5.286259    3.388636   75.994293
H   53.167400   27.261766   52.581223
H   24.185698   56.144562   55.521519
H   37.028683   50.151875   41.233055
H   39.288612   11.130074    2.164429
H   75.916695   39.565022   94.424271
H   98.140907   68.407166   92.314255
H   88.379448   60.236473   94.781075
H   83.829895   80.827217   96.178253
H   38.264809   15.909966   30.505096
H   56.451202   63.975006   49.764297
H   34.989624   87.820488   94.106926
H   72.137444   82.442001   46.424370
H   89.360252   32.398327    1.375771
H   88.021416   76.644524   18.425991
H    6.467882   97.902237   37.704227
H   55.918362   78.228966   60.128384
H   88.014618   45.770092   47.112473
H   70.152840   65.284546   93.655228
H   62.505810   56.572979   37.655354
H   39.256165   61.455704   66.189552
H   84.706985   51.289124   81.156403
H   31.640995   37.898651   22.477631
H   23.880894   83.876038   92.028008
H   90.576355    5.951717   24.974087
H   43.340782   11.548843   49.333374
H   98.421753   94.089905   68.310860
H   10.428295   47.292229    6.617627
H   33.103611    0.738984   18.520443
H   31.980469   15.876626   89.171463
H   73.476364   93.900688   83.788597
H   54.543003    6.677717   22.998253
H    2.199821   73.247948    4.685904
H   10.980717   13.433128   76.705498
H   11.809615   91.560066   31.192993
H   53.210159   19.069729   85.475609
H   16.550680   38.698669   13.826050
H   83.045311   48.221676   24.077629
H    3.070015   10.944048   43.608795
