100
TIME:    4.762, STEP:  4762
H   95.288246   85.321724   94.786270
H   68.960518   62.911285   78.365723
H   61.609123   16.501339   67.448219
H   82.275894   36.456718   79.142220
H   52.518250   54.452805   36.586411
H   54.179256   96.049065   50.343426
H    3.394651   82.890823   62.847607
H   45.602486    0.576226   70.963600
H   36.568886   28.446609    0.335233
H   44.706810   84.758629   94.163330
H   57.305389   57.851917   81.049210
H   74.089714   62.385094   53.964485
H   40.193985   73.622536   51.845703
H   19.294979   90.398048   19.630037
H   38.424599   44.666138   21.866837
H   10.053947   95.227005   37.753845
H   41.175484   96.940811    6.891996
H    2.900202   63.113293   34.450146
H   19.438156   78.125732   14.243624
H   64.217705    4.689608   40.551704
H   81.692894   82.145294   27.995735
H   18.917923   50.405609   13.749954
H   22.164467   55.893181   96.102951
H   76.600082   93.794373   53.406181
H   59.267487    8.508469   71.708290
H   24.838438   85.879730   42.621159
H   51.446815   44.526897   94.451698
H   30.738396   78.713776   24.177866
H   14.716462   81.138023   32.069069
H   83.589859   72.980095   61.953865
H    3.468802   49.072880   32.624657
H   66.432808   20.943954   58.421852
H    5.785601   20.071630   26.795523
H   79.307098   37.313782   71.135796
H   62.400925   98.949265   14.701492
H   86.590408   58.409016    4.456033
H   36.536911   30.141880   83.692368
H   67.167915   71.807899   58.481472
H   44.067867   77.661858   82.839294
H   14.666616   66.381676   12.698191
H    9.803043   19.579985   54.536358
H    3.639148   25.578550   26.522860
H   52.258732   92.056244   45.437790
H   75.273178   92.574127   46.338722
H   43.587269   44.006432   63.607807
H   16.651379   53.744678    2.505898
H   78.937790   83.811241   71.177483
H   56.493732   44.417023   63.223503
H    4.230453   38.060589   54.517441
H   25.751080    3.212034   50.602882
H   43.181309    9.902943    3.625920
H   36.556068   21.860994   61.446846
H    7.649590   49.620422   26.299078
H   66.411888   29.507683   41.949669
H   61.637512   75.920174   40.850574
H   99.524551    7.524561   30.517090
H   98.142838   52.141289    8.893297
H   71.467178   27.175730   90.896347
H   65.844383   39.975708   45.902077
H   44.775326   93.810638   28.167976
H   60.091370   57.115536   43.112434
H   29.902166   83.618057   79.889374
H   97.352180   82.332565    6.925835
H   70.038612   67.703796   97.849121
H   21.333643   80.511444   39.033741
H    8.808495    5.539885   27.749929
H    5.503973   12.998002   96.970871
H   51.421898   89.880630   93.853737
H   94.238724    7.619370   61.569710
H   26.864786   87.657227   91.705719
H   70.817406   71.393433    5.023232
H   81.318146   93.483276    5.272693
H   96.499542   82.758217   39.651436
H   25.378338   48.031269   20.211494
H   91.766731   35.428631   62.389980
H   38.235283   12.771837   75.506577
H   99.313278   13.807461   75.267036
H   55.707745   39.344967   77.427895
H   89.868538   39.531231   70.815483
H   65.987701   49.605671   10.670643
H    4.056950   78.546738   64.602455
H   98.623146   75.327042   88.581688
H   19.081278   86.756775   83.452759
H   77.767273   19.653669   28.481926
H   20.459375   51.019875   86.129982
H   41.695179   83.971138   72.470901
H   85.197929   57.116730   50.614105
H   32.606369   24.037161   46.220512
H   54.508896   29.031233   89.243782
H   45.314106   13.352989   94.448029
H   18.903374   30.566513   34.026531
H   30.638674   53.627029   24.264257
H   90.707039   70.404213   87.257309
H    7.492610    2.082652   47.895290
H   74.258553   23.178459   25.511547
H   87.243240    7.685801   21.485680
H   84.617393   40.961956   63.321976
H   24.345205   56.783264   79.833229
H   81.862488   57.377407   46.170120
H   34.996937   56.430790   39.001820
