100
TIME:    6.969, STEP:  6969
H   46.036942   82.930244   92.765701
H    8.010006   82.504021   17.522610
H   99.561081   75.281883   41.536663
H   82.646332   45.528168   58.169476
H   32.750351   31.353422   76.747330
H   19.947453   93.658058   68.910385
H   87.724823   31.917927   35.438030
H   72.136635   91.509308   68.324242
H   82.316551   16.252594   61.414471
H   84.411385   16.449511   80.582283
H   52.015625   46.655308   68.459328
H   89.852905   73.010635   96.868523
H   99.360359   40.158924   32.546562
H   10.018240   83.595467   87.583824
H   65.251472   47.527397   15.764042
H   21.315468    2.194683   54.553223
H   63.701576   42.915470    7.803917
H   50.096355   55.727463   57.942780
H   53.807743   70.712921   30.515850
H    4.762405   57.815495   90.814568
H   50.726379   62.432281   68.089821
H   30.505157   53.335434   25.803528
H   92.696007   37.943794   32.960175
H   71.538094   20.197725   89.494965
H   80.333199   33.483604   88.007545
H   14.747845   20.654644   35.068802
H   61.135235   52.785187   38.244236
H   44.517525   81.729073   97.129593
H   62.705086   81.374336   27.743143
H   68.215576   18.357384   37.403679
H   90.329155   46.979004   58.013908
H    5.784238   59.962528   54.108818
H   61.245190   58.597023   25.619513
H   72.558525   35.055374   78.158707
H    7.516595   32.018929   49.051895
H   78.441048   31.271160   97.516151
H   48.216454   49.316040   57.595249
H   75.949821   31.416615   14.225036
H   50.909893   29.572744   68.964478
H    6.791897   59.769688   86.341110
H   58.969696   95.307762    6.531862
H   12.904699   68.932083   35.740055
H   71.262482    5.292894    4.852942
H   34.349308   29.617025   62.126602
H   52.146072   56.929058   52.466496
H   88.167900   95.839859   11.473566
H   96.179977    3.835385   92.359779
H   56.612972   67.148422   99.780182
H   68.738472   55.276539   66.479904
H   72.054932   36.806072   96.259132
H   43.023067   96.831177   26.889957
H   43.821110   17.067337   16.565010
H   53.431561   62.417358   98.119576
H   15.307541   93.495941   39.338333
H   85.912491   69.335579   59.625027
H    2.275640    5.203012   55.385590
H   38.055904   88.458702   18.797478
H    7.129863   18.751440   34.051010
H   39.906906   33.230412   76.474205
H   99.137642   63.449879   65.395653
H   99.310020   54.479607   71.037033
H   51.574501   63.075607   80.029343
H   47.186367   31.731468   55.585205
H   21.588024   79.726181   37.931927
H    8.933528    4.241375   44.561893
H   73.230804   95.823814   58.245514
H   28.432951   89.298828    3.524855
H   98.969093   16.101839   99.361099
H    4.234852   49.038437   23.148746
H   71.573692   98.661552   87.058411
H    0.734324   21.231049   78.552467
H   99.371758   20.220840   66.874229
H   52.599579   73.593704   83.063782
H   76.792366    8.351864   89.079681
H   98.175285   38.577351   29.695992
H   90.407951   54.221272   27.004492
H   99.716400   22.615757   14.337652
H   59.396618   95.034172   99.310265
H   95.703011   33.048573   95.432747
H   57.758560   29.385628   20.535484
H   47.245636    1.379483   96.510361
H   64.243721   89.665741    3.978264
H   58.681282   23.664343   93.635223
H   29.606056    8.511326   26.906811
H   12.996977   12.969260   72.186012
H   90.898056   65.039597   25.731873
H   32.598545   96.649391   55.852196
H   68.109703   47.407902   23.320183
H    0.308497    6.149879   71.193367
H   50.185986   22.551929   73.340347
H    9.222950   49.736900   80.634323
H   93.934326   19.614765   66.309853
H   32.179707   36.624226   57.928047
H   20.793839   35.973961   96.708023
H   36.103477   25.488922   76.226746
H   69.532410   20.533548    7.491018
H    9.436161   67.616348   36.396042
H   24.825541   31.285885   38.978958
H   76.726036   66.896034   61.311497
H   72.081581   99.799820   26.394367
