100
TIME:    9.884, STEP:  9884
H   48.907135   15.612071   90.096939
H   27.503872   40.464115    1.322100
H   49.667728   84.998772    7.316399
H   83.135605   25.430292   98.386124
H    6.630159   65.003174   97.710884
H   74.748535   90.500023   57.592148
H   34.949841   28.753176   63.394848
H   43.023392   43.693073    0.676946
H   10.660286   35.985733   77.925560
H    4.789511   58.304600   94.719307
H   80.869354   63.945282   87.669823
H   78.597206   19.123890   89.375496
H   13.479858   63.722137   42.862999
H   65.684952   74.610634    9.416149
H    0.657148   87.145233   75.577415
H    4.107888   47.238205   12.582255
H   29.294624   35.720337   73.167862
H   12.430770   13.883316   56.897148
H   99.216187   92.998169   84.098801
H   26.223881   95.915253   89.281303
H   77.745651   72.235298   88.973419
H    9.969055   57.205139   77.564392
H   53.776230   14.244560   49.559830
H    0.691365   55.069550   73.003372
H   76.076157    2.308990    9.530830
H    1.000483   34.723190   60.754292
H    9.770226   31.610132   96.077316
H   98.558968   17.791416   93.483910
H   26.089321   45.845585   89.950577
H   79.989799   46.210617   69.138283
H    5.052221    8.373636   27.388474
H   89.839218   79.426117   84.252708
H   66.574379   45.321594   88.225731
H   95.724075   67.913078   55.353920
H   34.970436   11.312447   26.403532
H   31.836084   59.592770   88.353401
H   27.803535   42.562263   87.285965
H   55.466351   78.074318   19.927895
H   27.864796   66.061363   86.479683
H   32.231441   86.875732   15.686810
H   59.749954   95.327820   75.207237
H   67.244011   80.367996   84.546623
H   96.348846   22.781002   15.404779
H   48.225567   78.551796   47.137646
H   99.268463   41.895908    1.900417
H   50.546310   51.432995   23.316198
H   18.967281   62.368298   20.348532
H   56.790890   97.171997   80.143097
H   53.947441   13.857632   50.196617
H   33.247910   81.182854   92.443520
H   46.317799   15.669525   52.252274
H   85.491165   46.577560   25.212870
H   13.886671   79.319519   28.824688
H   47.798248   45.939049   67.969917
H   53.816261   24.791063   84.403961
H    5.906269    2.136715   56.152100
H   22.855019    4.347564   96.038002
H   90.073196   43.465492   58.966209
H   69.811317   56.406815   52.691006
H    6.777660   87.505066   82.486122
H   83.194519   18.919775   43.768612
H   48.115440   35.943192   48.136597
H   45.109478   32.855690   55.713028
H   21.756298   95.605316   58.791855
H   24.635139   71.424904   16.022264
H   94.160431   50.910637   30.604074
H   94.556190   90.077820   44.262157
H   97.610115   82.813606   38.714966
H   49.520332   39.585129   40.325977
H   30.763870   45.091183   80.879822
H    8.161669   22.888462   43.591682
H   59.342789   23.413475   80.538422
H   62.537201   29.407228    8.321743
H   12.626446   23.862297   15.879980
H   38.592323   42.868916   50.713078
H   59.324593   41.044628   30.861866
H   64.460884   70.315720   66.040245
H   96.340324    4.439210   60.307907
H   35.486885   24.486294   27.963587
H   14.805148   70.590828   69.405830
H    4.311069   31.536875   70.736656
H   82.982903    8.578378   60.107361
H   43.058357   72.413734   71.245880
H   30.152855   57.954666   60.665771
H   71.063309   30.616486   89.611420
H   23.809841   72.111412   28.158314
H   27.284929   84.704521   94.850349
H   14.989565   14.149987   93.101471
H   60.805912   43.846581   47.352425
H   92.460297    2.619980   77.544617
H   28.517324    7.138088   42.194115
H    9.614809   38.850357   21.856142
H   19.036808   24.083700   83.349480
H   99.017555   12.558782   98.631630
H   85.701706   64.382179   43.208687
H   10.299514    5.424423   56.927490
H   78.057030   34.900070   68.750107
H   19.198900   75.519958   80.452843
H   37.861931   79.483696   17.148586
H   53.143669   24.996078   45.583256
