100
TIME:    3.690, STEP:  3690
H   67.782623   83.629578   95.767715
H   98.625450    4.809913   10.763874
H   43.182487   39.376945   80.027077
H   82.095963   80.621758   37.901577
H   62.120056   68.527275   65.653549
H   70.803230   97.210442   44.179283
H   59.575924   10.503340   79.015739
H   29.859573    7.834458   69.391197
H   62.920692   31.515030   67.815865
H   74.002953   69.366295   52.187881
H   57.020218   14.717457   84.309792
H   15.002594    8.651245   30.270319
H    8.542052   38.457367   58.372284
H   72.373833   93.702248   38.051037
H   25.385658   40.421371   73.398598
H   53.157837   88.988091   26.739359
H   27.379402   26.035770    9.303610
H   79.993126   15.256143   71.617859
H    2.741640   33.153572   57.764301
H   93.104912   27.455050   67.564995
H   45.306885   88.865967   57.087975
H   16.144241   48.982513    5.040683
H   36.477211   64.611687   26.775623
H   76.200508   80.937439   33.021908
H   97.609283   93.523331   63.791298
H   29.737471   17.660315   43.306900
H   43.886204   89.088089   73.187050
H   21.190660   28.676422   88.743034
H   91.405930   83.877823   82.744362
H   42.483658   99.511833   76.733154
H   61.282009   52.944401   17.437889
H   98.746193   50.559067   57.662270
H   30.275717   98.504845   30.221296
H   34.013397   35.556190   16.297306
H   89.047165   79.984337   49.422676
H   93.391136   74.354889    7.949589
H   33.718277   69.399887   99.223015
H   11.478566   91.420448   82.834389
H   89.316101    1.020075   86.724083
H   15.637028   66.738693   28.355421
H   83.066696   82.796310   29.280500
H   99.984940   77.468262   76.160751
H   43.024967   85.627777   68.005180
H   43.727173   74.613678   41.522507
H   36.575603   86.302856   71.873962
H   30.481579   33.297901   98.150917
H   70.562790   25.512936   60.886192
H   56.436481   33.375763   96.894249
H   72.890610   26.843872   97.277557
H    3.267802   86.902077   25.581127
H   43.263096   13.397732   92.323593
H   84.460190   21.334484   31.820377
H   85.417488   43.404602   88.560005
H   91.242455   47.001945   94.646759
H   46.990250   81.968689   31.731432
H   98.183243    8.652792   67.010498
H   30.181818   83.073174    6.937142
H   51.291008   28.412910   18.509308
H   81.299049   94.679672   28.199474
H   15.517602   11.413084   58.658211
H   92.468330    6.970967   26.694584
H   67.949303   93.596085   28.393379
H   24.573999   55.484306   80.436089
H   96.424797   61.867188   26.956547
H   78.785759   66.130867   39.203083
H   74.662666   58.831978   64.365402
H   91.512527   75.934021   45.215984
H   25.472389   28.572786   42.605938
H   40.811836   84.646469   28.802059
H    5.146219   33.738571   93.963043
H    4.857492   44.332527   17.884018
H   69.708908   29.061371   26.785873
H   66.396591   35.783459   67.139153
H   48.981747   15.868504   83.907127
H   40.081066   33.899212   81.124794
H   12.889710   44.067413   47.638851
H    1.982615    6.721550   56.308781
H    5.343241    9.440042   18.224062
H   38.461227   42.680035   58.854691
H   18.560921    7.987915    3.024484
H   83.085373   67.456406    0.531980
H   18.189041   68.326065   78.221802
H   51.265316   68.850281   81.354218
H    4.016760   27.920540   26.392548
H   72.656815   18.072277   90.048386
H   66.369568   44.594795   98.027863
H   13.601492   35.059868   99.496643
H   15.353235    9.863916   57.368095
H   32.262802   88.719261   98.011360
H   40.093029   57.460777   56.124268
H   75.032593   72.679863   11.387856
H   51.317757   73.012260    3.837354
H   21.990105   38.235718    4.357844
H    3.879650   37.058365   75.615562
H   92.791512   19.201565    0.880104
H   98.700424   50.016853   76.855553
H   69.707550   79.442223   24.974226
H   20.411245   47.655823   96.992165
H   32.930199   52.756435   35.960907
H   68.409798   83.941719   42.270599
