100
TIME:    3.875, STEP:  3875
H   55.271637   66.664093   95.598343
H   93.479347   14.840353   22.433485
H   46.362457   52.686806   77.856285
H   82.127014   72.999992   27.760691
H   60.463028   83.355843   60.637299
H   67.935188   97.010017   62.501160
H   49.880756   22.995823   93.482979
H   15.318939   23.838932   52.404987
H   58.373039   13.728043   56.170551
H   68.947182   72.022621   59.432793
H   39.811966   22.161320   66.488976
H    7.941170   17.924112   17.102308
H   96.774139   27.264664   39.985481
H   63.213600   93.132027   52.130131
H   27.636196   23.896603   64.506538
H   45.719559   72.807365   11.382208
H   12.502763   38.271526   26.144888
H   83.945152    6.259318   65.204285
H    5.622914   40.915070   67.510788
H   88.119713   23.526312   80.160667
H   34.328720   70.449524   52.067490
H   33.880371   49.228104   89.286255
H   34.007195   63.107094   21.482025
H   59.012016   83.156219   19.281559
H   90.992462   78.852844   65.157570
H   28.888491   12.148190   25.967138
H   27.932901   81.398575   76.856789
H    5.581098   37.311600   94.857384
H   95.428528    0.662628   73.999092
H   49.577545   94.933128   91.440338
H   68.562737   69.533501    2.801277
H   10.427032   45.448250   40.535881
H   43.307430   84.969154   46.887558
H   41.829941   18.601997    8.504051
H   84.448700   65.999809   60.687363
H    9.478308   88.887054    7.311090
H   51.461464   62.624985   13.800031
H    3.832454   88.035820   95.890190
H   81.508026   96.989189   68.795998
H   98.212074   49.419159   42.911404
H   70.423035   89.144958   33.639019
H   83.358200   85.770340   84.852386
H   44.618481   86.737167   81.368675
H   31.913443   77.713196   59.610596
H   20.528460   79.002899   87.704651
H   28.094837   36.826496   98.901802
H   72.008102   35.574120   62.663193
H   56.446362   35.281204    8.340919
H   78.299240   11.522713   89.898560
H    7.147845   89.716484   12.642475
H   43.248981   95.536888   94.274200
H   93.451050    4.167830   19.674953
H   89.253777   44.477295   77.816139
H   86.957329   43.982880    2.810286
H   32.260483   98.183289   33.305065
H   98.414719    8.458014   60.712662
H   41.909458   77.735115   24.532309
H   37.515373   10.941528   13.743755
H   95.890495    2.496374   13.996880
H    3.309722   25.633322   53.396370
H    4.138231   98.367699   12.271008
H   61.383293   91.874130   20.022141
H   37.133968   42.860405   67.750084
H    9.128332   62.873543   21.933239
H   86.128059   51.354725   56.431095
H   63.297768   49.635048   75.304047
H   76.669846   82.330658   54.147564
H   12.693138   39.153152   51.450008
H   50.032761   71.353546   17.198627
H    8.894293   43.044182   93.573486
H   98.982796   31.745308   15.664532
H   54.454971   22.921616   40.331173
H   54.334442   26.633106   62.396240
H   44.908337    4.161273   72.914848
H   48.999943   34.163151   95.148842
H   17.263506   55.924904   35.191380
H   18.779486   90.687302   59.580494
H   14.034877   97.343376   28.441462
H   47.332115   42.136631   60.919624
H    9.487944   97.912483   87.086571
H   86.704300   69.370316   11.588805
H   32.070534   69.534256   62.752441
H   62.970371   71.938507   98.974609
H   16.744402   43.751411    9.496087
H   63.649017    6.500187   72.114655
H   62.112041   51.390869   10.875043
H   25.957220   21.608864    8.318340
H   18.330664   95.052544   55.444305
H   36.101913   78.418587   96.498299
H   23.736231   49.848892   62.736855
H   82.603546   82.670021   15.294717
H   65.007187   86.923393    7.362601
H   33.848412   43.786903   18.664225
H   21.760960   48.280708   88.089851
H   89.593193    2.629929    5.131001
H   13.980742   42.711250   67.300117
H   55.022949   90.059059   14.334156
H   21.090147   49.230988   94.030968
H   24.117180   53.553898   20.464729
H   79.901726   79.193642   24.448671
