100
TIME:    9.422, STEP:  9422
H   80.150787   57.979256   90.519913
H   40.262955   15.427622   72.193230
H   41.726398   51.760094   12.740154
H   83.058060   44.464714   23.710249
H   10.770014   27.971832   10.237215
H   81.910889   91.000542   11.837752
H   59.161556   97.555656   27.265850
H   79.335678    3.725365   43.097359
H   22.017128   80.405014    7.005503
H   17.409986   51.670963   76.630135
H   23.843536   45.355591   32.172508
H   96.228157   95.966957   22.260601
H   42.940048   91.687706   88.775162
H   88.560776   76.034645   74.259071
H   95.045601   28.413338   97.797630
H   22.685150   87.646286   50.932678
H   66.445808    5.163744   31.110182
H    2.550778   36.364281   72.912186
H   92.018585   73.618927   59.747593
H   38.669880    5.727194   57.826164
H    5.161524   18.227640    1.514514
H   65.676666   56.591827   16.907913
H   59.944923   18.000277   62.776077
H   43.618382   49.542694    7.314062
H   92.600327   38.949081    6.120605
H    3.179898   48.342941    4.229394
H   49.609833   50.816624   86.912888
H   37.540726   96.226822   78.214561
H   16.043697    3.929826   11.789314
H   62.274254   57.645004   32.410072
H   86.870674   66.943832   63.940445
H   60.668140   92.192871   27.022316
H   34.030365   79.124237   46.605125
H   76.203842   10.252592   74.817757
H   46.468269   46.292366   98.294037
H   91.676132   23.404268   89.805611
H   83.491180   59.481209   50.882038
H   74.562035   86.526741   87.325722
H   47.367405   76.128136   31.250229
H   75.745804   30.126915   79.338516
H   91.324936   79.473358   64.322716
H    6.179007   78.551544   60.969135
H   92.372894   20.008762   82.033379
H   77.722816   70.797279    1.967576
H   39.367188   60.161205   62.380062
H   56.506714   42.621044   21.439253
H   15.354539   37.240139   15.912579
H   56.762691   92.413544   51.557133
H   40.443680   52.119480   68.628479
H   23.551237   74.147392   24.746288
H   43.744709   60.078232   51.385178
H   63.038311   89.447372   55.540474
H    4.303675   76.640686   55.658630
H   58.495956   53.478554   47.582588
H   90.600868   84.304016   80.477356
H    5.330849    2.622694   71.879669
H   93.566391   17.678932   52.098091
H   24.474203   87.095222   70.865868
H   33.372143   36.883057   88.158470
H   37.263752   51.995235   95.626503
H   54.050434   40.404385   79.786797
H   64.512718   40.243423   69.041222
H   13.719825   64.342674   87.375641
H   90.031738   93.088623   71.334488
H    6.297469    8.323017   72.998390
H   22.540939   73.878105    3.286622
H   31.624264   74.103516   21.956554
H   29.523911   56.391853   16.628693
H   26.492945   72.781509   69.302551
H   21.380905   21.887552   81.859711
H   22.834038   54.325977   49.132637
H   97.388832   38.753319   46.674137
H   92.659973   52.258579   20.168530
H   22.795437   53.100842   43.329933
H   16.338102   42.188633   15.683821
H   48.401299   11.434173   61.946968
H   22.501499   10.301662   57.846008
H   74.634727   34.646629   34.792023
H   13.333533   25.843334   22.806833
H   37.461143   95.757759    9.207510
H   95.266884   26.757273   43.123528
H   48.314758    5.579145   98.759743
H   13.835501   64.687416   27.246632
H   98.368065   18.420124    2.863949
H   93.558456   59.516159   34.396332
H   34.444103   55.141281   96.075348
H   96.428917   18.296013   72.820473
H    7.560184   51.118690   97.888123
H   51.218510   69.570427   51.130989
H   33.307270   21.629120   61.028130
H    9.610106   82.190475   32.437523
H   75.431488    4.104235   13.054765
H   89.421967   10.220739   47.622307
H   56.973976   84.726425   63.475475
H   93.688858    5.763539   32.592049
H   72.140152   23.667372   80.790253
H   14.728484    8.387988   95.319901
H   20.090670   52.659985   89.730064
H   59.870659   77.488670   55.847149
H   24.448433   36.850956   90.088593
