100
TIME:    7.684, STEP:  7684
H   97.685051   17.361549   92.111099
H   88.263748   21.248119   62.607449
H   11.851870   26.721302   33.141392
H   82.766342   16.069599   18.976086
H   26.343752   88.663826   57.360199
H    8.858281   92.883446   39.718353
H   50.250858   80.198456   91.351959
H   15.939049   53.364788    2.673747
H   64.740486   47.508163   16.406071
H   64.882423   26.715853    8.578110
H   85.508072   75.425064   99.588104
H   62.566620    8.849771   45.973213
H   53.766579   96.884079   61.491154
H   74.615593   81.391640   41.996349
H   73.935860   83.660080   81.377960
H   92.565643   39.658325   95.201447
H    6.205463   90.208038   72.893188
H   65.386276   20.935364   33.160637
H   64.941895    0.704715   68.183350
H   85.496628   42.634182   39.495033
H    8.297256   91.250488   48.685177
H   99.052902   54.284607   64.914703
H   83.149727   32.128746   12.501494
H    5.103163   28.751192   36.392990
H   54.760078   76.780930   93.288002
H   11.376644   99.579147   67.784767
H   99.478622   23.061621   52.432735
H   84.187981   15.102836   20.764044
H   78.251884   46.244373   93.945946
H   95.632492    0.660127   94.244957
H   18.468660   11.095186    1.445447
H   50.929684   40.209911   87.917717
H   11.607145    6.284728   90.032356
H    2.768542   69.529976   48.036102
H   89.722023   77.883415   92.552078
H   40.594379   87.272400   95.268684
H   16.794922   23.131033   13.934344
H   46.397789   18.330029   64.678566
H   20.727283   13.995943   99.676048
H   39.446548   92.832733   42.595825
H   10.104876   19.840200   23.376188
H   52.648308   71.735962   72.240807
H   77.415741    9.581902   56.495884
H   88.694534   41.618065   32.036457
H   90.125710   28.721165   13.650578
H   78.938011    9.475829   14.378363
H    1.766988   42.720650   99.222191
H   56.656612   74.512695   44.019909
H   89.642097   96.061897   37.956093
H   87.067139   47.688831   46.267418
H   42.973972   27.803225   34.426941
H   78.570786   50.721058   69.630035
H   68.262184   66.563171   56.595985
H   98.751160   81.833115   70.890152
H   28.983788   31.993645   65.705841
H    3.166172    4.450901   31.045303
H   83.383972   67.827827   86.799721
H   53.889084   51.228554   15.632476
H   96.294380   63.445751   21.585304
H   51.953140   18.405521   45.059349
H   44.413555   21.230392   15.291509
H   26.197762   56.420486   47.678337
H   95.726997   82.940460    6.555511
H   70.687309   83.621063   18.517521
H   37.313766   47.136387   11.146289
H   29.307175   60.278923    0.521911
H   71.066711   14.018858   38.046368
H   49.579369   56.993706   33.542236
H   39.872101   97.663109   78.306152
H   86.082802   34.591640   85.545959
H   78.030479   72.582764   69.977180
H   40.508640   96.460350   19.280653
H    5.979479   38.230305   64.734924
H   61.050213   63.097767   46.596008
H   32.616455   39.629475   83.907806
H    7.309581    0.044579   78.893135
H   64.654015   60.731834   27.017839
H   92.988617   48.283871   38.798588
H   29.988997   30.948391    3.409769
H   22.694435   90.435173   58.937721
H   61.242012    8.776864   39.245087
H   17.898056   94.302505   44.160572
H    3.904428   35.621738   61.729385
H   78.795723   69.695679   61.601543
H   78.183060   68.239342    2.875453
H   74.445724   91.300049   75.383438
H   80.351768   44.663078   89.946053
H   79.608879   90.192688   15.906815
H   15.148519   66.339409   65.345589
H   86.969971   93.134293   98.902557
H   38.483662   88.345497   95.733810
H   46.837086   73.389694   79.936485
H   78.012756   58.078808   13.220096
H   89.895027   79.352257   44.919064
H   23.740585   61.444710   92.657257
H   28.588516   92.299744   70.560280
H   52.682396    8.648700   95.274529
H   23.445421   66.662132   24.625406
H   42.664909   69.983574    1.420879
H   16.494768   81.449142   57.516972
