100
TIME:    3.142, STEP:  3142
H    4.841992   33.883842   96.269424
H   13.869734   75.099960   76.196426
H   33.762901   99.952652   86.457314
H   82.003983    3.198954   67.940857
H   67.028442   24.602657   80.512497
H   79.298836   97.804131   89.908623
H   88.298119   73.501305   36.161430
H   72.931290   60.423855   19.705555
H   76.391579   84.202835    2.308563
H   88.978966   61.497826   30.727282
H    7.993835   92.667892   37.096249
H   35.919678   81.182999   69.278099
H   43.399467   71.611969   12.840038
H   99.507927   95.391335   96.346870
H   18.719200   89.371445   99.738319
H   75.191223   36.918365   72.227882
H   71.446175   89.789856   59.417004
H   68.286583   41.905281   90.615906
H   94.205040   10.162761   28.895128
H    7.869644   39.091335   30.254572
H   77.825989   43.421730   71.961700
H   63.606949   48.255035   51.707947
H   43.793800   69.068535   42.454727
H   27.115692   74.365051   73.722054
H   17.208359   36.983253   59.744179
H   32.252079   33.988598   94.671852
H   91.140610   11.867164   62.316044
H   67.428123    3.097635   70.631340
H   79.490341   34.158463    8.648699
H   21.471462   13.075686   33.168091
H   39.712704    3.805245   60.793907
H   64.144997   65.698601    8.393349
H   91.675507   38.598183   80.853127
H   10.857852   85.777260   39.382858
H    2.668836   21.409180   16.054848
H   45.739193   31.305113    9.839349
H   81.157387   89.468246   56.042599
H   34.126755    1.446818   44.163136
H   12.446710   12.958658   39.828781
H   67.251266   18.039495   85.240517
H   20.518232   63.990589   16.369856
H   49.236107   52.874268   50.414719
H   38.304722   82.341583   28.423908
H   78.721375   65.432404   87.941978
H   84.110115    7.925325   24.980577
H   37.551495   22.845631   95.926674
H   66.281540   95.709747   55.622429
H   56.407215   27.733118   62.987083
H   56.871231   72.228386   19.137896
H   91.777489   78.565346   63.907513
H   43.304905   66.303680   86.545578
H   57.827808   72.185760   67.796654
H   74.053780   40.227112   20.386444
H    3.934399   55.944908   70.464386
H   90.622208   33.941032   27.071810
H   97.497574    9.229757   85.665710
H   95.441628   98.885368   54.817818
H   92.096672   80.164337   32.626053
H   38.079330   71.525803   70.271141
H   51.678291   69.293488   74.244637
H   57.900581   32.454708   69.419815
H   87.398888   98.696793   53.190346
H   87.370872   92.878349   18.014114
H   58.796043   58.886200   41.836399
H   57.035336    9.897231   88.169609
H    8.327181   86.074776   31.963367
H   35.480415   56.987690   18.758150
H   63.326332   97.230896   16.408369
H   13.498058   24.022240   63.173306
H   94.042786    6.175465   95.116974
H   22.259853   81.617867   24.458496
H   14.895200   47.248322   86.664459
H    2.126741   62.888287   81.187004
H   61.046818   50.548164   16.470146
H   13.660548   33.117382   39.583286
H   99.933891    8.944975   84.512604
H   52.228725   54.219734   46.617435
H   79.597198   45.273289   87.960587
H   12.184066   44.289684   52.738022
H   45.435799   37.833736   50.235062
H   72.365524   61.787090   67.778763
H   77.072525   64.747208   24.045633
H   16.593046   59.702454   29.159763
H   66.313553   81.026581   76.443237
H   99.339371   52.351543   43.170708
H   78.979187   24.464504   59.973232
H   77.001793   74.903923   73.365967
H    6.533609   53.738220   63.066673
H   20.888691   19.230726    2.494115
H   88.543457   80.005447   36.536713
H   52.606201   43.090351   99.815018
H   10.768085   31.801966   93.393944
H   86.862976   21.792204   61.980125
H   50.914623    3.817673   38.667564
H    2.265854   68.289246   88.287285
H   53.437912   71.657234    5.160488
H   13.205380   47.993435   56.490379
H   18.400229   42.989929    5.761673
H   59.035789   50.394222   81.861473
H   34.372486   98.006294   95.060471
