100
TIME:    8.368, STEP:  8368
H   51.428215   54.635582   91.484879
H   69.372757   58.315166    5.733752
H   23.609163   75.931534   25.112350
H   82.881149   87.888176   81.484566
H   20.214617   43.489353   38.813629
H   98.250977   92.142418    7.456733
H   14.403718   26.385180   44.841663
H   62.177994   12.540820   39.872070
H   47.926460   81.743530   73.352310
H   46.200172   36.537083   35.361763
H   21.884048    2.947371   33.701653
H   36.458435   43.135082   97.286171
H   10.150131   55.481529   93.518448
H   40.747490   79.283363   94.047935
H   82.243721   22.561813   48.482964
H   65.064117   79.833031   38.424103
H   51.202278   35.448750   35.160408
H   80.008530   87.652214    9.450842
H   75.598083   29.401119    4.221782
H   67.064865   28.110380   86.064980
H   67.707741   23.156292   30.122686
H   64.628654   55.192627    6.665756
H   74.017342   26.568369   92.931259
H   41.550125   36.933807   85.593643
H   30.295906   22.535789   98.339516
H    8.151566   79.414841    3.415724
H   40.496986   94.628494   66.005295
H   26.474451   47.029652   43.374535
H   93.124626    8.302650   61.612083
H   21.859276   83.731247   48.620331
H   45.389622   72.429787   47.329552
H   94.118034   21.313702   24.596367
H   59.788624   56.239510   51.652481
H   31.670639    6.845462   19.220671
H   72.699257   26.094963   34.168316
H    0.054031   40.848022   93.118660
H   82.398827   98.079842   67.831017
H   18.127861    5.811895   12.948455
H   91.855339   99.094322   33.390587
H   75.020798   28.798929   96.411133
H   63.357956   43.307823   39.490932
H   95.004333   74.418274    7.162408
H   83.302216   13.684952    5.903444
H   45.018391   53.101288   98.914337
H   30.794090    1.736212   72.183525
H   70.108299   22.519485   17.157217
H    7.114025   79.918159    5.790709
H   56.698360   81.557678   86.341988
H    9.637146   39.412064   10.670311
H    1.428072   58.099751   98.441399
H   42.927006   61.767159   41.638916
H   11.813288   87.250671   24.729588
H   82.446083   70.529236   16.871725
H   82.907776   70.675949    1.073903
H   74.522163   91.936188   71.519257
H    4.018093    3.731400    7.760330
H   26.746994   48.091438   51.853920
H    2.957622   86.632668   98.013573
H   50.241817   92.345940   69.075623
H    6.818017   70.981277   25.604759
H   87.560165   89.420776   61.959713
H    1.921245   50.053909   16.728668
H   42.164295   36.266144   59.651581
H   17.654953   87.347076   99.945724
H   64.465561   92.505524   74.844223
H   87.289558   26.275139   40.965824
H   16.188150   37.665783   71.069077
H    2.330639   96.111626   66.241394
H   73.963074   48.515221   35.406555
H   99.974464   68.945816   84.095215
H   56.309208   26.041931   61.773689
H   84.182709   73.749413   69.416061
H   61.381973    4.396670   47.195614
H   45.994823   19.809525    5.955925
H   65.566101   40.636646   35.768940
H   23.481058   43.883461   32.869446
H   26.775978    1.527956   39.149796
H   25.121653    3.561275   76.577087
H   62.787308   28.939266   11.043139
H   89.151146   53.175041    0.010640
H   74.632698   15.853158   80.126862
H   69.223312   98.738235   86.937080
H   47.169472   47.060703   26.869030
H   25.854771   28.227346   99.130486
H   44.878555   25.452297   36.569176
H   58.704952   16.423645   22.882690
H   26.034655   94.930382   22.561836
H   90.609489   35.458275    8.814865
H   29.345463   28.255011   59.751350
H   26.494925   64.996109   23.353334
H   66.475731   25.279049   10.178977
H   97.446159   24.832790   92.972313
H   21.858280   78.599480   66.114868
H   55.999825   20.849720   91.040215
H   11.912842    0.174312    8.374697
H   85.084061   65.288757   35.230995
H   98.390221   47.900993   55.937431
H   22.125139    0.509316   10.892908
H   10.080796   72.937248   44.130184
H   58.978626   63.894123   91.623856
