100
TIME:    2.067, STEP:  2067
H   77.539703   32.466812   97.253616
H   43.772911   16.813829    8.385841
H   15.284697   22.612068   99.071373
H   81.823547   47.490257   26.863468
H   76.657120   38.436680    9.660297
H   95.964485   98.968758   83.447868
H   44.638493    0.910356   52.094948
H   57.424171   67.422760   18.408478
H    2.817169   87.559692   69.977852
H   18.354528   46.062416   88.630852
H    7.987717   49.412663   40.645542
H   76.949692   27.298494   45.797386
H   11.780980   36.651131   19.686211
H   52.735695   98.704781   14.539165
H    5.641935   85.394653   51.414520
H   18.415245   30.941841   61.462662
H   57.883743   18.691017   61.548470
H   45.315437   94.182274   27.887043
H   77.457375   65.068695   72.258957
H   36.829491   61.916386   57.063606
H   41.617920   50.441586    1.142818
H   60.545292   46.828140   43.253975
H   58.146599   77.811440   73.210724
H   26.994850   61.472141   53.561592
H   55.655876   22.242340   51.812645
H   37.181240   66.016357   95.432518
H   83.839348   56.556019   40.983685
H   58.133636   52.920284   35.095478
H   56.115784   36.626076   59.463921
H   80.251610   39.681900   47.708889
H   97.411659    7.403841   45.849316
H   96.268951   95.404793    7.911492
H   15.954004   17.250717   84.008636
H   65.436897   84.294601   84.672089
H   29.392902    2.670691   50.593361
H   52.272381   46.858189   13.534169
H   78.050781   28.838881   71.336853
H   78.557503   21.122120   68.302788
H   57.825996   36.379089   44.004295
H   68.504295   18.677382    0.660997
H   93.985237   27.107454   91.042160
H   45.851013    4.624672   99.911346
H   29.045118   75.895126   50.774338
H   47.366966   47.414139   82.834030
H   77.358070   50.336185   32.989388
H   51.420399    2.341633   91.563423
H   57.877132   37.248749   45.296616
H   56.349804   16.665060   96.472206
H   25.450903   61.259373   62.022827
H   69.239494   62.210461   39.095577
H   43.386921   70.087959   75.210968
H    5.585695   71.937637   38.367580
H   51.757332   33.993896   82.821983
H   28.826252   73.483696   23.027113
H   76.206833   39.709263   17.945692
H   96.152512   10.359631   22.261246
H   27.290758   29.904808   52.576378
H   72.143890   81.684784   60.314651
H   53.295891   26.104811   52.799286
H   22.618450   86.664230    4.819926
H   90.088303   82.446480   53.235332
H   25.549980    8.704514    1.827921
H   14.435732   66.199394   91.753830
H   84.976807   53.038460   71.023918
H   14.364108   95.755829   88.056961
H   74.366219   39.516273   68.402519
H   21.729445   19.824900   66.857071
H   37.584053   35.751709   65.017151
H   59.922920    1.264893   30.593811
H   72.259338   52.108131   97.380615
H   56.396080   54.761253   37.357029
H    3.534062   82.925278    7.957330
H   72.219284   16.064808    8.746914
H   84.701256   18.575335   80.360603
H   61.828247   31.584795   58.090679
H   74.525337   40.048042   56.845715
H   54.625801   47.393539   27.605181
H   29.091747   15.564177   28.592518
H   60.631264   47.447117   40.739235
H   98.155678   96.380417   42.847237
H   51.331684   50.665722    3.528861
H   96.411896   57.726639   13.936140
H   48.581989   41.757355   26.771305
H   92.360664   89.037453   74.632263
H   51.683975   19.591614   47.379929
H    3.716292   84.979424   85.321922
H    5.204992   53.065186   22.105970
H   89.229782   39.805435   74.252968
H   98.577583   79.085121   11.288921
H   83.588058   24.232964   98.109093
H    8.612823   85.043365   77.112991
H   31.224813   50.962841   72.906349
H   17.906651   89.567062   78.823776
H   47.011669   38.611500   66.184502
H   20.854462   64.581390   63.584068
H   64.647308   14.108015   60.685715
H   98.533981   86.301506   18.314468
H   14.454457   33.836945   22.963306
H   10.246164   45.760319   71.907089
H   67.609024   25.610191   98.603790
