100
TIME:    3.327, STEP:  3327
H   92.331207   16.918358   96.100052
H    8.723278   85.129639   87.866196
H   36.942871   13.261832   84.286522
H   82.035034   95.576897   57.800220
H   65.371414   39.431225   75.496246
H   76.430794   97.603706    8.229559
H   78.601540   85.992531   50.628670
H   58.390656   76.429245    2.719175
H   71.843925   66.415894   90.663994
H   83.923195   64.154152   37.972191
H   90.785599    0.111814   19.276339
H   28.858253   90.456146   56.109383
H   31.632286   60.419266   94.452507
H   90.347694   94.821114   10.425571
H   20.969738   72.846329   90.846260
H   67.752945   20.737640   56.871437
H   56.569618    2.026845   76.258286
H   72.238609   32.908775   84.202332
H   97.087196   17.924257   38.641109
H    2.885857   35.163303   42.850243
H   66.847824   25.003876   66.939804
H   81.343079   48.500626   35.953476
H   41.323784   67.563942   37.161835
H    9.927200   76.583832   59.982700
H   10.591954   22.311356   61.110451
H   31.403307   28.476480   77.330925
H   75.188538    4.176679   65.986427
H   51.818722   11.732803   76.745689
H   83.512939   50.943283   99.903999
H   28.564644    8.496629   47.875275
H   46.994312   20.394323   46.157295
H   75.826057   60.587318   91.267021
H    4.706278   25.062855   97.519386
H   18.674870   68.823067   31.588936
H   98.070099    7.424436   27.319534
H   61.824718   45.838657    9.202760
H   98.901985   82.693344   70.619926
H   26.480995   98.061638   57.217525
H    4.637500    8.928297   21.901094
H   49.826801    0.720137   99.795265
H    7.875275   70.339233   20.728376
H   32.609367   61.177757   59.106354
H   39.898235   83.450974   41.786182
H   66.907639   68.531921    6.030735
H   68.062065    0.626459   40.811581
H   35.164753   26.374226   96.677559
H   67.726852    5.770807   57.399429
H   56.417095   29.637854   74.433846
H   62.278450   56.906471   11.757989
H   95.656120   81.379753   50.968861
H   43.290791   48.443344   88.496185
H   66.818665   55.019112   55.651669
H   77.890068   41.299805    9.641872
H   99.650566   52.925842   78.628143
H   75.892441   50.154221   28.644857
H   97.729050    9.034979   79.367874
H    7.170024   93.547310   72.412804
H   78.321037   62.693558   27.860424
H   52.669365   79.342346   56.068462
H   39.470764   83.512314   68.982796
H   69.570351   23.851902   54.995800
H   80.832878   96.974838   44.819107
H   99.929848   80.254448    5.328110
H   71.499565   59.892555   36.813091
H   64.378975   95.121681    5.397840
H   96.962440   76.877846   42.902008
H   20.637192   63.382915   27.690435
H   50.547173    7.811457   25.252439
H   22.718887   10.729317   51.569874
H   97.791565   15.480688   94.727417
H   16.384743   69.030663   22.239010
H   99.641342   41.108566    0.208627
H   90.064484   53.737934   76.444572
H   56.974438   38.840286    5.475786
H   22.580038   33.381321   53.607334
H    4.307666   20.801760   72.063721
H   69.025826   38.184387   49.889149
H   88.288834   33.175854   98.176575
H   21.055105   43.746281   54.802956
H   36.363075   27.757778   34.297104
H   75.984451   63.701000   78.835968
H   90.952606   65.955399    8.575567
H   28.298101   62.790680   46.780155
H   79.041901   96.857269   59.545876
H   90.331573   40.779163   25.236977
H   74.722290   31.259872   72.820145
H   89.357521   61.452919   82.187454
H    9.511038   38.926590   61.142883
H   24.728508    8.930515    0.980554
H   72.187714   72.394974   43.149300
H   60.177155   53.079098    3.721956
H   24.457052   45.714508   96.919716
H   98.721878   27.343390   76.286461
H   68.795753   15.039375   51.140442
H   99.067131   51.717915   92.538536
H   68.718140   64.351631   95.604866
H   98.521118   58.610271   45.850960
H   19.079130   44.565094    2.801535
H   50.222771   51.191685   66.366707
H   45.863003   93.258217   77.239655
