100
TIME:    8.593, STEP:  8593
H   36.212151   34.001884   91.278885
H   63.158615   70.507355   19.920742
H   27.476694   92.119202   22.471340
H   82.918915   78.618462   69.152412
H   18.198454   61.524097   32.712784
H   94.762817   91.898659   29.739239
H    2.611771   41.578926   62.436954
H   44.493439   32.005581   19.212624
H   42.395531   60.110764   59.189663
H   40.054695   39.767750   44.171425
H    0.955106   12.000470   12.028612
H   27.870216   54.413235   81.270164
H   95.802460   41.863632   71.157837
H   29.606852   78.589851   11.170536
H   84.976570    2.463708   37.663147
H   56.017563   60.153770   19.746780
H   33.109169   50.330074   55.643044
H   84.818481   76.703651    1.651691
H   79.103409   38.840778   16.075069
H   61.002636   23.332186    1.384026
H   54.355919    0.756253   24.015833
H   86.199623   55.491318   87.504974
H   71.013268   24.739317   86.493958
H   20.643953   39.625458   68.884125
H   22.249279    4.691589    0.001198
H    7.090269   72.781845   82.242844
H   21.094584   85.276382   70.468491
H    7.489754   57.531895   50.812622
H   98.016975   28.715925   50.975945
H   30.486118   78.162552   66.507446
H   54.245632   92.606865   29.528267
H    8.324593   15.097780    3.767019
H   75.636856   39.777184   71.922256
H   41.177277   86.225586    9.742388
H   67.099663    9.059288   47.858311
H   19.612272   58.472496   92.411415
H    3.979899   89.840096   85.560204
H    8.828438    1.694108   28.825417
H   82.359032   94.191673   11.586964
H   53.828308    7.735051   14.113538
H   47.980530   51.027435   44.791836
H   76.042618   75.300613   18.649113
H   85.238556   15.034639   22.154896
H   30.652050   56.879555   20.912853
H   11.277050   92.861000   91.437065
H   67.203789   26.810162   18.071314
H    8.873233   92.154182    7.951282
H   56.712093   83.875107    0.263720
H   16.213493   20.778221    1.694594
H    6.150906   61.524395   82.710350
H   42.911556   40.045128   44.011276
H   22.748812   66.373215    9.959161
H   87.111839   71.833862    3.804003
H   77.696136   67.005829   11.001945
H   56.607582   11.653968   73.431564
H    4.298330    3.494721    0.100787
H   41.010338   41.599205   73.253227
H   86.203552   65.384422   92.218285
H   67.988167    1.852749   51.801842
H   91.969902   88.274445   19.205223
H    1.753186   78.956299   44.417637
H   93.935539   47.959641    6.547892
H   57.440441   20.912130   44.222656
H   33.105396   88.572739   93.838013
H   73.395386   74.536011   95.797211
H   73.467384   15.089719   54.269581
H   98.135544   45.443760   81.931808
H   86.788361    8.979859   76.997696
H   85.175995   32.348152   21.294273
H    4.544209   80.248001   83.617996
H   49.162945   10.732163   59.075172
H   65.653580   66.278709   85.909286
H   46.711792   93.266563   41.426075
H   41.042393    5.569392   92.587227
H   76.404800   40.967953   52.828648
H   28.800844   58.304733   17.729818
H   47.210770   82.054565   43.140923
H   35.691402   88.849892   89.005371
H   73.577751   28.278370   13.554115
H   78.116753   40.918419   80.626640
H   79.037529   18.180887   93.574814
H   86.107925    0.197558   68.112694
H   61.401917   50.823521   48.297520
H   41.333817   47.481056   78.579185
H   33.923126   11.377640   14.758535
H   53.525928   24.688282   38.507309
H   41.061893   78.571053   33.290672
H   94.228111   17.453407    6.481847
H   34.015141   15.728012   57.911140
H    6.601743   55.738594   31.396528
H   75.683647   37.427525   14.930564
H   14.093882   41.754807   97.260414
H   36.281269   85.349205   83.514465
H   77.745255   34.500233    6.211445
H    8.022137   80.021255   13.544708
H    3.668162   56.403564   23.609520
H   80.530571   60.813362   42.997597
H   21.690836   11.642297    6.375639
H   99.362511   73.908852   25.283482
H   72.954681   58.121151   69.949890
