100
TIME:    9.628, STEP:  9628
H   66.219635   39.087959   90.331314
H   34.573563   26.591068   85.181389
H   45.267338   66.580803   10.321770
H   83.092636   35.977776   12.418567
H    8.924105   44.483643    4.651945
H   78.717285   90.777367   32.238632
H   48.365856   11.466067   43.375317
H   63.144485   21.546589   24.182487
H   16.953255   60.599014   94.038841
H   11.782675   54.628819   84.695869
H    4.681881   53.644501   12.329569
H   88.366737    6.292465    7.597837
H   29.804153   79.218193   68.302780
H   78.360733   75.399696   89.934761
H   97.547676   10.012398   87.889915
H   14.401741   69.628830   33.833069
H   49.880562   18.788696   49.863174
H    6.956160   26.340263   65.770584
H   95.227905   82.259888   70.602707
H   33.120365    1.352499   71.851616
H   92.937057   97.719673   95.922638
H   85.426086   56.865295   99.365173
H   57.194527   16.325678   56.882370
H   24.477501   52.007050   92.015091
H   85.232407   22.611725    7.641181
H    2.208124   42.270065   84.844398
H   31.845421   42.252674   90.999191
H   20.159254    5.842199   85.022972
H   20.522915   22.619417    2.052004
H   70.173393   52.546555   48.786720
H   94.977272   85.417068   47.642380
H   73.675156   86.500336    7.951852
H   48.541458   64.052063   65.163231
H   84.907669   91.374016   66.139076
H   41.341530   30.695259   10.827523
H    9.583155   39.540035   89.158089
H    3.249873   51.937263   67.114090
H   66.046806   82.757912    1.863358
H   38.671436   71.639488   11.287849
H   56.342770   10.841239   95.545425
H   77.246048   86.542664   69.175987
H   88.818230   79.360184   71.484123
H   94.145721   21.244869   96.913811
H   64.571205   74.254921   22.108349
H   21.495092   52.028721   80.006042
H   53.849045   46.550182   22.276159
H   16.965328   48.444469   17.890524
H   56.775265   94.535278   64.303253
H   46.464691   35.059162   60.411179
H   27.874861   77.284416   10.342699
H   44.892017   40.276947   51.771805
H   73.049759   70.332901   42.017952
H    8.576612   77.835144   43.693619
H   53.725983   50.116783   56.673042
H   74.199074    2.356197   82.228180
H    5.587421    2.406002   64.866943
H    6.626221   11.734650   71.690346
H    9.135457   67.641273   65.559959
H   49.619915   45.588455   72.344475
H   23.670506   67.829285   89.767372
H   67.046082   30.825048   63.727596
H   57.201378   38.326004   59.720581
H   27.708847   50.291237   73.252090
H    4.176922   94.210785   65.742538
H   14.474006   91.870216   92.182014
H    9.886566   63.637199   15.467338
H   15.095951   81.226257   31.902775
H   15.294124   68.172981   26.476685
H   36.760567   57.979660   56.382618
H   25.564651   32.233761   81.422791
H   16.292023   40.308384   46.661995
H   80.424385   31.913475   61.773029
H   79.228607   42.069538   14.886196
H   18.261211   40.063961   31.089941
H   26.260748   42.491962   31.302923
H   53.271858   24.636864   48.086540
H   41.210884   92.471970   61.500107
H   84.312981   21.177544   46.169235
H   23.211493   25.238247   25.106165
H   27.358906   84.536140   91.460518
H   99.299751   28.888437   55.435875
H   63.771988    6.916428   81.524971
H   26.865309   68.132484   46.865604
H   12.540551   36.048416   84.048302
H   83.528152   46.630157   14.427541
H   29.702419   62.708801   10.380816
H   10.187273    3.317862   82.643318
H   10.872866   34.635170   95.753815
H   55.493412   58.100487   49.446175
H   15.094068   13.153183   68.392273
H   18.040762   93.314651   36.787865
H   90.673401   19.597078   16.979189
H    2.626969   16.402060   63.552605
H   75.720680   97.136215   79.151161
H   90.127487   87.311867   37.325874
H   89.154892   15.533247   70.150146
H   98.377342   20.209446   83.472763
H   19.693041   62.852169   85.593468
H   50.057243   78.378227   38.591946
H   37.243279   31.565414   70.244873
