100
TIME:    5.512, STEP:  5512
H   44.568031   16.543377   94.099625
H   48.246712    3.549841   25.654350
H   74.505554   70.459412   58.644230
H   82.401779    5.555222   38.031425
H   45.800568   14.568529   16.252476
H   42.546337   95.236534   24.617880
H   64.084511   33.534374   21.498659
H   86.653961   65.458908    2.099643
H   18.132454   56.337082   53.126999
H   24.211531   95.527519   23.533293
H   87.542221   88.029984    8.806114
H   45.464333   99.978935    0.579401
H   92.334824   28.269363   77.321709
H   82.159798   88.086342   76.706169
H   47.545540   77.673538   85.815704
H   79.897949   29.629471   75.496796
H   80.864815   46.546024   75.167450
H   18.938131   26.623383    8.451761
H   31.119713    9.587108   53.754353
H   44.013100   88.760292   91.615242
H   37.186821    7.479711    7.639557
H   90.821152   51.401245   49.880554
H   12.150336   49.793480   74.645279
H    6.913349    2.767794   97.703629
H   32.442535   49.031258   77.247231
H   21.419516   63.712448   72.093445
H   86.773102   13.349060    9.332090
H   67.454323   13.721214   48.971489
H   31.024406   49.183567   96.617706
H   12.348200   54.417778   21.576626
H   32.986671   16.327507   73.287041
H   13.788157    0.223602   88.990623
H   58.616108   65.198158   94.361443
H   10.996293   68.580833   39.538658
H   43.758499   42.255234   60.369141
H   51.786167   17.152084    2.097023
H    8.471875    2.673216   42.789288
H   36.171009   58.083965   11.408770
H   12.407950   61.319695   10.158728
H   44.024471   96.167931   71.707970
H   58.545395   45.312027   72.206032
H   36.233330   59.240799   61.753498
H   58.718922   96.553772   99.612160
H   27.384029    5.161603   19.670416
H   78.530037   14.417655   27.787512
H    6.973753   68.049789    5.554282
H   84.797165   24.599594   78.375816
H   56.533787   52.141785    9.629203
H   26.151733   75.945496   24.597572
H   41.480984   14.627516   98.148605
H   43.124088   37.495804   11.532357
H   73.005501   52.267529   12.208641
H   23.207081   53.969177   82.741112
H   49.044685   17.268227   75.045982
H    1.920872   41.650410   47.230656
H    0.460899    6.735634    4.985321
H   45.688019   30.500511   80.224464
H   15.620839   56.347389   71.578720
H   24.996664   71.664574   88.323997
H   95.284348   51.459553    6.836189
H    7.401470   22.238865   84.636955
H    3.285953   76.637161   45.954597
H   48.270596   31.154539   55.496063
H   21.538330   71.789337   77.490082
H   51.104424   20.609467    8.877398
H   62.735100   68.255241   72.095787
H   45.330719   38.926525   33.182388
H   99.614052   32.775120   29.708075
H   31.619474   53.729164   14.528815
H   42.057785   25.379341   90.126434
H   47.002251   20.364227   96.026863
H   19.477814   68.592377   60.185776
H   47.598938   45.659302   20.419640
H    8.870235    0.565109   75.649376
H   27.927378   36.498653   19.245102
H   55.967903   60.841599   25.042158
H   67.409721   48.803051   88.530739
H   90.944107   90.304222   18.846216
H   25.833729   37.328243   79.181114
H   29.209225    8.753947   46.057465
H   18.733027   86.305832    9.428634
H   54.901695   80.216980   25.862223
H   66.522453   99.299500   54.879414
H   29.367056   83.832687   59.980045
H   83.940178    4.105184   13.425718
H   24.431767   11.518264   24.553375
H   35.288750    2.585515   86.376892
H   44.677116   63.998959   38.426865
H   70.072861   87.273216   83.109749
H   79.004181   82.497238   21.258619
H   49.596428   71.062531   49.865154
H   86.131081   10.034610   38.552208
H   38.783203   92.906746   45.256001
H   79.981087   47.579784   98.464912
H   61.292397   55.999065   42.745274
H   49.190201   78.069000   82.746841
H   25.085562   84.003181   20.189194
H   27.097509   63.169067   67.828377
H   46.134033   60.610363   83.349312
H   81.582275   37.187550   66.753128
