100
TIME:    5.731, STEP:  5731
H   29.757856   96.460350   93.899124
H   42.198280   15.417460   39.463436
H   78.271622   86.215408   56.072811
H   82.438538   96.532196   26.026875
H   43.839005   32.122345   10.314754
H   39.149525   94.999275   46.306736
H   52.607517   48.322956   38.624744
H   69.440994   84.406204   81.992653
H   12.749016   35.281189   39.340919
H   18.227697   98.672035   32.109562
H   67.171371   96.841980   87.710487
H   37.105133   10.955931   84.990517
H   78.359940   15.025471   55.560722
H   71.316063   87.411324   93.371101
H   50.208855   58.111374   75.289429
H   71.092636   10.474870   57.318085
H   63.254189   61.030514   95.103882
H   23.621489   15.967617    0.860304
H   34.530109   18.775042   65.291672
H   38.113373   84.108681    6.525711
H   24.191048   85.678101    1.695556
H   11.816895   51.691971   31.230667
H    9.225953   48.012367   68.379639
H   86.565590    5.387667   81.439697
H   24.610439   31.662903   78.864601
H   20.421190   57.237953   51.499718
H   67.889297    4.245171   13.677521
H   48.976223   23.943398   56.211227
H   35.786293   69.053162   86.265198
H   20.745174   48.997581   38.986252
H   41.606522   35.965527   55.960457
H   27.615940   94.171890   68.716682
H   74.041862   49.174828   14.090695
H   20.250000   48.510735   30.312449
H   38.314911   25.700258   73.705307
H   70.823685   34.305626    1.408280
H   29.476807   94.652954   60.045696
H   27.120083   54.075626   26.862469
H    3.163525   56.547783   88.936089
H   23.397635   75.666756   88.937645
H   43.578033   52.825783   77.365578
H   17.236691   64.077255   72.535912
H   60.605297   97.867050   15.430530
H   13.400713    8.837606   41.082680
H   59.533009    5.777337   46.527813
H    4.147740   72.226883    6.444003
H   86.508102   36.509842   80.477730
H   56.545483   54.397415   23.179693
H   32.552711   57.807457   15.861592
H   46.074116   17.960836   82.830368
H   43.108074   16.352407   13.841037
H   83.648735   31.945137   97.831429
H   27.750088   55.239014   70.022697
H   43.973694   13.694575   84.710106
H   84.483940   60.843319   49.093639
H    0.733687    6.505267   97.530029
H   59.571007   24.181404    1.053142
H   99.313873   35.665764   65.937973
H   42.268112   80.917671   71.512032
H   80.831604   68.292816    0.607319
H   21.216530   12.054438   67.560997
H   95.513527   74.598740   36.044861
H   63.139378   16.209734   40.478577
H   36.576958   72.982315   71.545242
H   59.797791    3.118247   29.272474
H   49.281517   57.368065   85.044777
H   27.759991   46.497089   43.755447
H   84.486290   45.299717   40.177540
H   42.535053   37.993217    0.793259
H   46.493858   36.394669   89.665283
H   40.048225    5.463404   93.400307
H    1.420515   61.324234   76.219528
H   33.319962   34.827263   14.803955
H    4.049870   86.703880   62.636894
H   38.485722   36.811100   35.847183
H   61.145828   74.877007   10.306370
H   87.292686   29.820765   92.403740
H    1.233130   75.985146   30.941408
H   36.334942   36.684971   81.623878
H   18.471302   96.824471   27.190289
H   23.018724   88.571487   22.517347
H   71.338470   81.637192    7.542514
H   80.373695    2.961715   75.735535
H   44.433144    2.572862   39.978451
H   73.276894   90.407249   92.196304
H   19.390850   19.562511   39.761337
H   49.915260   86.662392   96.819626
H   48.199242   46.473545   36.156197
H   74.617538   75.079445   81.318611
H   59.642139   73.488083   29.087328
H   58.558800   82.888718   54.490032
H    2.334863   26.505041   42.724289
H   52.821579   99.476479   62.191608
H    1.147201   60.866283   13.231511
H   57.506279   36.381763   47.777836
H   67.278687   69.420746   71.435272
H    7.702805   96.571220    7.594142
H   27.215174   70.026917   63.829254
H   35.701324   61.554386   65.006859
H   95.186234   31.568459   45.655682
