100
TIME:    4.961, STEP:  4961
H   81.830482   67.072365   94.604080
H   63.464455   73.694046   90.912537
H   65.030197   30.817673   65.113152
H   82.309296   28.257824   68.235115
H   50.735825   70.403534   31.190666
H   51.092655   95.833473   70.051353
H   92.964592   96.327332   78.409668
H   29.961479   17.791935   52.692043
H   31.677086    9.313496   87.809639
H   39.268440   87.615974    1.955328
H   38.794891   65.859161   61.879963
H   66.495430   72.359993   39.799217
H   27.495346   61.588890   32.072021
H    9.442046   89.784676   34.774574
H   40.844688   26.890692   12.300959
H    2.052131   77.821793   21.234795
H   25.173134   10.103143   25.007750
H    7.155641   53.431416   27.551710
H   22.537663   86.473068   24.727137
H   58.856705    0.463574   54.100563
H   69.883949   62.335045   22.594563
H   37.996246   50.669785   96.803329
H   19.507530   54.274727   90.409515
H   58.110355   96.176239   38.626022
H   52.149933   92.726959   73.177956
H   23.931284   79.998032   23.908403
H   34.286041   36.253956   98.399147
H   13.947362   88.002426   30.756441
H   19.043587   99.193047   22.662750
H   91.220581   68.054893   77.774025
H   11.301064   66.917114   16.880409
H   78.997841   15.446334   39.999413
H   19.803116    5.512344   44.723015
H   87.715164   19.076569   62.752022
H   57.454468   83.906448   26.818642
H    3.889275   73.995369    3.829971
H   55.622826   22.853523   99.372849
H   58.942974   68.167137   72.524681
H   35.667393   73.325737   63.554489
H   95.922920   47.751427   28.355139
H   96.203003   26.407553   59.224712
H   85.754051   34.509865   35.870724
H   53.972836   93.249588   59.811058
H   62.565601   95.913025   65.795578
H   26.326040   36.155563   80.636497
H   14.083735   57.540302    3.314840
H   80.492477   94.633324   73.087440
H   56.504360   46.466660   75.536507
H   10.046989   21.579990   46.578514
H   29.924747    6.240942   36.685089
H   43.166126   90.690643    5.723761
H   46.227318    3.395237   48.382309
H   11.777347   50.774292   14.741404
H   61.803207   26.260147   50.731224
H   45.793060   93.361824   42.543423
H   99.773544    7.315232   23.742661
H   10.758517   46.399269   27.819939
H   56.649063    8.382233   85.770737
H   81.540047   48.383774   30.624001
H   31.643986    9.106305   22.507942
H   72.644257   47.861805   27.597443
H   22.840029   81.765793   70.886154
H   10.862199   68.753342   93.279785
H   83.702858   68.787827   92.447189
H   29.232336   64.618408   57.565495
H   96.584068   95.647179   39.516365
H   89.537842   19.877785    6.578782
H   37.675667    1.261502    3.367088
H    4.156453   93.320518   49.088181
H   30.896498   97.665527   91.286682
H   64.498451   57.853683    2.635920
H   64.908905   86.878891   19.842575
H   83.524582   72.913887   34.548599
H   20.998188   35.437389    8.388126
H    1.361934   35.712543   77.475311
H   42.940338   25.525892   62.115833
H   17.381243   96.559517   78.786339
H   65.057129   26.332382   88.416985
H   99.412254   38.946705   73.035164
H   56.228394   38.766888   93.526733
H    7.951070   80.605484   76.496422
H   13.554666   76.626663   71.941673
H   31.669085   90.084778    2.403697
H   91.458847   36.682907   10.306842
H   10.769353   38.571747   66.839104
H   37.114620   91.279991   86.290009
H   98.488686   42.647812   60.103165
H   35.809875    8.105221   44.151138
H   58.638535   17.951807   87.616219
H   27.719297    5.165070    1.562333
H   27.047264   41.311268   38.229046
H   45.362659   68.593933   28.055326
H    3.463243   76.377007    2.646307
H   26.727150   14.153573   61.312061
H   70.818199    5.352720   30.083755
H    3.679850   99.827850   11.206953
H   68.821526   52.382229   51.877411
H   25.075483   58.477631   76.647942
H   72.382538   58.235218   29.501259
H   47.357006   51.324917   19.831366
