100
TIME:    7.768, STEP:  7768
H   92.004387    9.658490   92.034195
H   85.943802   25.800213   67.903763
H   13.295748   32.764420   32.155094
H   82.780441   12.608585   14.371704
H   25.591051   95.396797   55.082550
H    7.555554   92.792442   48.037476
H   45.848728   85.870148   97.920868
H    9.336815   60.631603   94.961357
H   62.675606   39.431931   11.118580
H   62.588112   27.921968   11.867371
H   77.694595   78.805008   91.496490
H   59.360352   13.060122   39.993904
H   48.410194   91.799423   53.143833
H   70.456352   81.132729   48.389019
H   74.956123   76.156784   77.337921
H   89.188263   32.311401   88.228790
H   99.450569   95.764374   80.540039
H   67.181992   16.847900   30.248974
H   66.250549    4.228782   72.609192
H   83.233078   40.850643   45.214149
H    3.312582   82.888428   46.405605
H    7.106064   54.396118   57.761322
H   82.028206   31.445841   10.098075
H   97.298431   29.756075   30.154224
H   51.755684   70.119736   93.908363
H   10.980587   97.102829   59.879951
H   92.235519   19.569845   54.099636
H   77.099968   19.023672   23.540609
H   80.078362   53.865589   89.975121
H   98.853500   98.581100    0.922778
H   21.774584   18.627537   94.799644
H   56.233517   37.889324   80.141411
H   17.524088    0.139039   97.599739
H    6.317836   61.831856   44.497223
H   87.631508   71.523430   97.662369
H   47.896442   93.851562   95.004646
H   24.851608   20.054541   20.553190
H   42.926201   16.792583   70.606606
H   17.181355   12.165941   91.535728
H   31.535000   84.969269   49.205109
H    4.364239   22.722189   25.355192
H   45.569267   72.065369   76.529503
H   78.138641   10.085785   62.562992
H   83.330460   43.027977   40.249195
H   82.839027   25.407230   20.838886
H   77.853661   11.077682   14.719625
H    2.423639   47.288765    0.028417
H   56.661739   75.377869   49.217358
H   92.097908   89.104622   34.604988
H   88.830811   48.967365   40.393852
H   42.968204   19.693346   35.312622
H   82.653122   42.926167   64.115997
H   70.004066   67.050232   51.717690
H   96.805481   80.462936   74.596939
H   22.295357   39.355309   66.419769
H    3.270794    4.362541   28.185745
H   88.709595   65.404060   94.788795
H   47.634201   43.295876   13.468741
H    2.919562   66.994987   15.136559
H   46.410263   24.862278   42.670189
H   49.712261   17.323975    8.742307
H   23.216438   55.638626   43.877342
H    1.429546   77.208527    0.795380
H   76.455132   84.078644   16.236668
H   40.648209   40.427128   18.969057
H   24.147217   56.103020    5.488801
H   64.327332   16.922848   42.101788
H   43.776939   61.797661   37.557922
H   44.058899   91.627403   73.038208
H   87.788795   38.810482   85.367798
H   75.363182   66.867493   68.969734
H   33.591740   93.671288   25.437803
H    0.502465   34.075550   62.581051
H   59.201305   57.781757   41.604919
H   36.662903   39.753162   90.276764
H    9.295503    5.428280   73.240669
H   72.282921   53.461174   28.507540
H   96.935089   42.791622   43.437840
H   34.016861   30.701656    4.347200
H   18.575249   85.859367   51.701027
H   62.886482    9.645883   44.265656
H   24.201324   94.847244   37.133442
H    9.217660   37.026524   69.728897
H   84.575081   76.883667   53.929699
H   74.093033   62.984341   94.732628
H   72.512863   94.385193   81.216629
H   85.961937   38.555595   93.951485
H   80.959831   83.471252   15.035873
H   16.892002   61.662346   64.658577
H   79.543579   89.678726    1.905407
H   41.921284   92.881569   97.507736
H   53.052235   79.707382   81.537376
H   83.397339   60.599346   19.715944
H   98.013557   84.448448   50.583065
H   22.288055   53.920265   94.587555
H   35.526566   88.982605   66.221596
H   46.014793   13.469157   90.443657
H   23.283281   70.818810   22.938959
H   38.663322   70.346306   94.385292
H   21.712084   79.293259   49.424717
