100
TIME:    4.610, STEP:  4610
H    5.567284   99.260933   94.925430
H   73.158516   54.674164   68.782227
H   58.996391    5.566248   69.231789
H   82.250381   42.718925   87.473274
H   53.879700   42.269333   40.707870
H   56.536861   96.213737   35.289776
H   11.360785   72.627762   50.961010
H   57.549385   87.425629   84.919044
H   40.305336   43.060745    9.903358
H   48.860741   82.576134   88.211914
H   71.444061   51.735828   95.691177
H   79.890373   54.766075   64.784187
H   49.893448   82.814064   66.949219
H   26.820644   90.866554    8.062350
H   36.576088   58.243530   29.173325
H   16.165977    8.521618   50.371033
H   53.398384   86.886490   93.054832
H   99.649971   70.509514   39.719677
H   17.070694   71.749878    6.236085
H   68.313652    7.917543   30.202829
H   90.712791   97.276642   32.121239
H    4.345535   50.203827   26.694168
H   24.193886   57.129387    0.451739
H   90.722519   91.971375   64.695480
H   64.704010   20.563217   70.585732
H   25.531340   90.372284   56.914066
H   64.554497   50.845928   91.436562
H   43.563221   71.618927   19.153025
H   11.411119   67.347252   39.254372
H   77.761368   76.742058   49.870125
H   97.486763   35.443302   44.650414
H   56.835400   25.143112   72.493263
H   95.079079   31.192266   13.102162
H   72.884857   51.243713   77.539482
H   66.179123   10.439518    5.446182
H   73.377151   46.503864    4.934251
H   21.958326   35.708481   71.715317
H   73.450996   74.588783   47.755703
H   50.484310   80.973869   97.569397
H   28.983297   80.610802    0.739111
H   20.190769   14.364957   50.955303
H   17.300400   18.756804   19.382784
H   50.949467   91.144745   34.459213
H   84.979599   90.027496   31.476439
H   56.771534   50.003075   50.600971
H   18.612377   50.845509    1.888006
H   77.750290   75.545128   69.718620
H   56.485615   42.851471   53.818596
H   99.787582   50.648785   60.581345
H   22.563152    0.898497   61.233559
H   43.192905   24.577961    2.023548
H   29.169207   35.965618   71.424927
H    4.496598   48.739075   35.127254
H   69.932640   31.988213   35.242149
H   73.739807   62.598026   39.557545
H   99.334366    7.684450   35.691528
H   88.505997   56.527153   94.436714
H   82.785538   41.530296   94.811386
H   53.856720   33.553467   57.571815
H   54.805294   82.128143   32.491219
H   50.503235   64.183739   54.963081
H   35.296715   85.032852   86.766205
H   87.033455   92.704636   17.348930
H   59.601112   66.875793    1.975773
H   15.300469   92.650848   24.878542
H   18.145561   13.095991   18.762503
H   17.699591    7.743250   89.632492
H   61.921532   81.187759   86.587257
H   86.663773   18.541122   71.102478
H   23.785288   80.012695   92.025787
H   75.643944   81.735352    6.846665
H   93.851837   98.527832   94.144218
H    6.410376   90.277504   43.549080
H   28.724789   57.650715   29.242821
H   84.437630   35.211773   50.867519
H   34.641472    3.029971   85.734848
H   85.513229   26.981869   72.578926
H   48.566509   49.284481   69.034218
H   82.578865   39.977703   69.120049
H   73.442047   57.884541   23.765495
H    1.082558   76.974228   55.517620
H   87.218971   74.334366    1.291704
H    9.466471   84.214783   68.977783
H   67.309387    6.646461   42.364311
H   27.860956   60.527992    0.864711
H   45.193897   78.388496   61.915604
H   75.046196   68.168365   43.366180
H   30.159906   36.206337   47.801140
H   51.354599   37.494286   90.486946
H   58.753498   19.607079   89.013824
H   12.682914   22.358963   30.816568
H   19.391409   42.195847   21.368158
H   80.963509   65.842079   75.502914
H   92.801437   92.863144   37.647305
H   76.886360   36.794121   22.019207
H   74.688675   13.687944   29.336632
H   96.682579   32.238934   72.063553
H   23.787405   55.489075   82.266212
H   89.103455   56.722195   58.902115
H   25.556078   60.330753   53.644947
