100
TIME:    3.695, STEP:  3695
H   67.444489   83.171051   95.763138
H   98.486366    5.081009   11.079264
H   43.268433   39.736671   79.968407
H   82.096802   80.415764   37.627491
H   62.075272   68.928047   65.517975
H   70.725716   97.205025   44.674469
H   59.313892   10.840969   79.406746
H   29.466583    8.267015   68.932137
H   62.797783   31.034302   67.501152
H   73.866310   69.438087   52.383690
H   56.555130   14.918634   83.828148
H   14.811745    8.901861   29.914427
H    8.224011   38.154861   57.875343
H   72.126259   93.686836   38.431553
H   25.446484   39.974747   73.158272
H   52.956802   88.550774   26.324301
H   26.977333   26.366467    9.758780
H   80.099937   15.012984   71.444519
H    2.819512   33.363342   58.027706
H   92.970177   27.348867   67.905418
H   45.010178   88.368225   56.952286
H   16.623596   48.989151    4.614891
H   36.410454   64.571022   26.632553
H   75.735954   80.997406   32.650547
H   97.430450   93.126831   63.828224
H   29.714525   17.511332   42.838264
H   43.455029   88.880264   73.286232
H   20.768774   28.909805   88.908287
H   91.514648   84.331467   82.508003
H   42.675385   99.388084   77.130646
H   61.478809   53.392742   17.042305
H   99.061897   50.420937   57.199394
H   30.627909   98.139015   30.671736
H   34.224655   35.097969   16.086678
H   88.922882   79.606377   49.727127
H   93.825935   74.747650    7.932332
H   34.197823   69.216782   99.616997
H   11.271914   91.328972   83.187248
H   89.105072    0.911146   86.239540
H   15.166084   66.270630   28.748812
H   82.724976   82.967896   29.398298
H   99.535568   77.692642   76.395660
H   43.068035   85.657761   68.366356
H   43.407883   74.697449   42.011360
H   36.141911   86.105560   72.301819
H   30.417072   33.393269   98.171211
H   70.601852   25.784866   60.934219
H   56.436749   33.427261   97.203621
H   73.036789   26.429787   97.078125
H    3.372669   86.978142   25.231434
H   43.262714   12.915001   92.376312
H   84.703186   20.870522   31.492123
H   85.521172   43.433594   88.269630
H   91.126640   46.920349   94.867401
H   46.592148   82.406921   31.773947
H   98.189499    8.647528   66.840286
H   30.498781   82.928902    7.412692
H   50.918694   27.940708   18.380505
H   81.693413   94.890930   27.815620
H   15.187659   11.797415   58.515999
H   92.783730    6.738452   26.304760
H   67.771843   93.549545   28.167130
H   24.913450   55.143120   80.093224
H   96.768120   61.894386   26.820782
H   78.984200   65.731544   39.668705
H   74.355507   58.583412   64.661041
H   91.111374   76.106903   45.457378
H   25.127007   28.858755   42.844967
H   41.061050   84.287201   28.488453
H    5.247519   33.990074   93.952515
H    4.698715   43.992332   17.824032
H   69.296616   28.895432   27.151951
H   66.070587   35.536152   67.010979
H   48.871655   15.552094   83.610039
H   40.322117   33.906345   81.503822
H   13.007918   44.387886   47.302433
H    2.436586    6.288181   56.397205
H    5.578150    9.113104   18.500208
H   38.700981   42.665348   58.910500
H   18.315712    7.715603    2.593736
H   83.183182   67.508133    0.830812
H   18.564217   68.358719   77.803711
H   51.581669   68.933746   81.830444
H    4.360750   28.348415   25.935890
H   72.413361   17.759510   89.563690
H   66.254517   44.778473   98.375076
H   13.935431   34.696327   99.735062
H   15.433706    9.463612   57.316101
H   32.366562   88.440865   97.970467
H   39.650944   57.255051   56.302986
H   75.237213   72.949867   11.493447
H   51.687744   73.388237    3.932633
H   22.310596   38.385750    4.744507
H    4.362929   37.361671   75.952705
H   92.705070   18.753681    0.994992
H   99.113403   49.819405   76.597298
H   69.310669   79.729164   24.686655
H   20.429594   47.698395   96.912132
H   32.692009   52.777988   35.542091
H   68.720390   83.813393   41.788918
