100
TIME:    5.761, STEP:  5761
H   27.729162   93.709190   93.871658
H   41.369728   17.043188   41.355145
H   78.787521   88.373764   55.720562
H   82.443573   95.296234   24.382473
H   43.570297   34.526978    9.501366
H   38.684208   94.966774   49.277851
H   51.035328   50.348789   40.970783
H   67.083054   87.001724   79.238289
H   12.011559   32.396820   37.452415
H   17.408186   99.102791   33.284184
H   64.380844   98.049103   84.820625
H   35.960037   12.459627   82.855049
H   76.445572   13.211239   52.579765
H   69.830620   87.318855   95.653969
H   50.573692   55.431625   73.847473
H   69.886429    7.850911   54.827850
H   60.841774   63.014690   97.834900
H   24.263044   14.507923   99.820351
H   34.997257   20.033663   66.872330
H   37.305191   83.471474    8.568232
H   22.410805   82.691650    0.881315
H   14.693024   51.731796   28.675888
H    8.825353   47.768379   67.521332
H   83.778267    5.746554   79.211761
H   23.537556   29.283676   79.086159
H   20.284433   56.351036   48.678749
H   65.302475    2.998068   14.272785
H   46.445019   25.343697   57.202972
H   36.438606   71.775024   84.847046
H   21.895420   48.255089   41.371201
H   42.787323   38.655575   53.586952
H   29.510166   93.342880   65.939430
H   76.154900   46.979851   16.793333
H   21.517662   45.761406   29.048677
H   37.569214   23.432383   75.532242
H   73.431564   36.655327    1.313931
H   32.354179   93.554321   62.409588
H   25.880230   53.526539   28.979397
H    1.897164   55.894096   86.028831
H   20.571974   72.858376   91.297874
H   41.527710   53.855064   78.072365
H   14.708432   64.194901   74.067589
H   60.863705   98.046951   17.597454
H   11.485144    9.341146   44.015800
H   56.930851    4.593732   49.094952
H    3.760606   72.799088    6.565882
H   86.742477   38.141312   80.765663
H   56.547085   54.706406   25.035925
H   33.429558   55.322945   14.664826
H   46.703312   18.417456   80.731979
H   43.106014   13.456022   14.157294
H   85.106712   29.161362   95.862129
H   28.372417   55.412964   68.280449
H   43.279037   13.205054   86.033958
H   82.095329   63.472485   49.348843
H    0.771056    6.473710   96.508759
H   61.472786   23.315773    3.906428
H   97.079987   32.832664   65.165268
H   44.634064   82.185219   69.209023
H   78.851776   70.598572   99.754051
H   23.109039   10.659346   65.221825
H   94.448769   74.319504   34.687363
H   65.176064   14.162552   38.421387
H   38.637123   73.145737   70.730881
H   60.988663    0.722172   32.066319
H   47.438560   55.876671   86.818611
H   25.352955   47.534153   45.203812
H   82.413994   47.015415   41.611713
H   44.030338   35.837608   98.911774
H   47.101540   37.903687   89.602112
H   39.095619    3.422178   93.040504
H   98.946854   60.328598   78.415878
H   31.363899   33.343422   14.034683
H    3.389532   84.805077   60.854362
H   39.932026   36.853901   38.121353
H   61.855133   76.799614    8.287804
H   90.016380   27.220552   92.934288
H    2.642588   74.023628   32.598282
H   37.773464   36.596851   81.958504
H   17.000164   95.190254   24.605755
H   23.605806   88.881851   24.310293
H   73.590210   81.831741    5.032968
H   82.271126    3.463381   78.592438
H   46.496971    5.140058   37.238506
H   71.816170   88.530876   89.288132
H   18.700314   20.664463   41.844620
H   51.918892   84.481148   98.250137
H   48.681725   44.072803   35.845146
H   75.240097   73.409065   81.073250
H   56.989628   72.253952   30.159754
H   59.786522   84.508743   55.123577
H    4.554559   28.761244   43.295807
H   54.744644    0.376530   64.511551
H    4.046531   62.686352   15.254312
H   56.987633   33.694462   48.467228
H   69.756561   68.236053   69.885742
H    5.321575   98.292870    5.868773
H   27.157267   71.511444   63.227066
H   34.272186   61.683704   62.494057
H   97.049789   30.798615   42.765591
