100
TIME:    6.841, STEP:  6841
H   54.693192   94.668526   92.882889
H   11.544674   75.568474    9.451808
H   97.359909   66.072899   43.039593
H   82.624847   50.801605   65.185913
H   33.896835   21.093657   80.218033
H   21.932804   93.796730   56.234005
H   94.433807   23.274372   25.428263
H   82.197182   80.435089   80.076195
H   85.463036   28.559235   69.471428
H   87.907478   14.611435   75.570564
H   63.921875   41.504917   80.789406
H   94.737671   66.594620    5.979587
H    7.528336   47.900135   45.265312
H   16.355873   83.989998   77.843590
H   63.696785   58.960991   21.919315
H   26.462440   13.390240   65.178223
H   73.994545   34.449650   96.151558
H   47.359051   61.955978   62.379303
H   51.814579   65.343781   23.772686
H    8.210648   60.533268   82.099724
H   58.322083   75.174591   71.564430
H   18.233673   53.165512   36.703918
H   94.404991   38.984810   36.622284
H   83.430672   18.666475   99.000824
H   84.911324   43.634972   87.062233
H   15.351360   24.427593   47.114700
H   72.172600   58.106476   35.704197
H   55.317329   75.754463   92.899124
H   59.921883   69.761055   33.793579
H   63.307377   21.525352   27.228127
H   85.292046   35.501465   68.140862
H   97.702301   63.498661   65.958427
H   52.228588   67.962257   14.088262
H   67.150322   46.785843   83.551285
H   10.702368   41.710335   41.263809
H   67.314095   21.245281   97.918495
H   35.940086   54.003540   47.509312
H   81.240837   33.759388    5.192771
H   56.313213   32.361382   81.368774
H   18.848049   71.752457   76.270798
H   67.717743   90.915184    3.516471
H   23.691879   68.430130   29.205666
H   70.160919    4.525072   95.607231
H   42.522160   27.468588   49.611954
H   63.248611   61.978863   41.513371
H   89.820244   93.398453   10.953547
H   95.179977   96.874222   91.131264
H   56.605160   65.830063   91.860260
H   64.996284   65.877296   71.585373
H   69.367432   34.857830    5.208711
H   43.031857    9.188902   25.540836
H   37.599430   28.945267   24.967354
H   50.776287   61.675171    5.553560
H   18.271408   95.583832   33.689896
H   96.103897   58.118271   58.536160
H    2.116216    5.337655   59.743011
H   29.941645   92.152061    6.623461
H   16.660852   30.839819   37.347885
H   29.812180   27.821232   86.300377
H    7.584251   53.611012   69.036278
H   91.235802   60.431755   81.017502
H   56.117470   64.267014   85.820358
H   38.495937   40.465858   64.362549
H   12.798473   79.028915   41.407513
H    3.852862   14.464565   32.641972
H   81.094086    2.187016   50.677155
H   38.702652   84.873047   97.344925
H    7.811106    8.781039   93.241959
H   97.855415   58.235703   31.177067
H   68.979942   92.224052   87.327942
H    4.799104   29.940033   80.087624
H    9.905627   24.480118   57.493370
H   60.945282   79.923782   86.345032
H   79.610725   16.452938   96.685150
H   92.003410   38.394733   19.992378
H   87.382561   46.017170   35.617081
H   88.091400   33.694859   12.067633
H   53.382946    3.403538   92.241905
H   89.564339   33.424549   94.005013
H   64.035904   36.358467   31.562828
H   44.740753    0.054959   88.859970
H   54.639206   88.835663   14.686714
H   50.584602   21.523718   81.445770
H   20.799904   97.558006   38.597240
H   19.229399   20.976189   84.594215
H   93.843369   60.337662   16.843201
H   24.049715    5.956131   49.748680
H   66.051109   57.651066   24.647331
H   97.652206   13.276588   72.240242
H   61.503368   27.818531   68.764175
H    3.984576   42.825768   77.931198
H   84.463623    9.988149   63.870453
H   23.974628   32.783405   48.029610
H    8.423383   28.208338   88.077164
H   38.316368   36.954742   73.285339
H   58.960144   25.587748   14.102591
H   19.595987   60.270645   43.757370
H   25.072611   24.952389   41.548294
H   82.823692   66.343300   72.032448
H   64.130409    3.084412   38.725422
