100
TIME:    2.380, STEP:  2380
H   56.372467    3.763257   96.967056
H   35.066261   33.784279   28.129599
H   20.664862   45.130417   95.398628
H   81.876083   34.595055    9.706659
H   73.853607   63.525013    1.173941
H   91.112068   98.629662   14.444941
H   28.235043   22.046219   76.571953
H   32.822990   94.502686   89.670082
H   95.122993   57.466110   50.275181
H    9.801905   50.556633    0.886223
H   78.873230   62.006977   10.496183
H   65.004913   42.987656   23.517797
H   91.870781   17.714287   88.576347
H   37.237572   97.740028   38.359470
H    9.449417   57.435944   36.367729
H    5.829340    3.565532   35.481216
H   32.718994   39.390205   90.046661
H   52.004227   78.961159   17.034775
H   82.333672   78.197922   88.750488
H   28.397461   55.270580   78.374123
H   23.044052   19.280567   92.646484
H   90.553268   47.243469   16.599258
H   53.967598   75.265831   64.255722
H   97.913696   65.226074   30.314407
H   44.460930   97.418823   54.121841
H   35.746052   56.690701   66.093544
H   56.849533   43.543804   47.194874
H   31.724726   67.530067   45.442547
H   62.921585   65.024178   44.667870
H   92.253700   31.935226   72.591850
H    9.725316   35.473446   21.082836
H   16.031654   86.755455   78.935555
H   38.001545   94.350594   12.206151
H   78.661644   55.609940   71.485550
H   21.611603   79.010315   69.652702
H   79.486038   71.446709   12.458375
H    8.072324   17.375284   96.000122
H   65.619316   15.393307   90.391792
H   44.613190   29.559389   13.672636
H   39.024067   89.375526   25.287256
H   72.593529   37.846836   98.416306
H   17.720367   18.672867   14.615936
H   31.741171   77.772095   73.382530
H   27.379679   52.660576   13.438121
H   50.207722   37.987835   59.774147
H   47.382290    8.311634   92.833839
H   60.324833   54.270416   48.303108
H   56.366520   19.887667   15.838799
H   34.599335   35.337627   49.535973
H   75.801720   66.973030   17.204777
H   43.363041   39.870201   78.511185
H   20.796064   42.893040   17.818836
H   58.250305   35.808777   64.644524
H   21.578671   68.378151   36.838531
H   51.289215   67.149506   20.601149
H   96.544144   10.030684   11.605988
H   47.132656   20.873390   82.345192
H   48.837006   52.126114   52.252762
H   77.982002   39.330090   28.768999
H    1.964300   10.722006   95.917732
H    9.832594   67.889229   28.832355
H   14.442196    5.790556   87.666809
H   35.666500   44.855446   70.280930
H    6.469238   54.741104   62.526997
H   26.787682   70.758240   17.205599
H   55.138039   23.956062   86.909523
H   96.616219   30.646124   81.968338
H   15.963095   53.652161   79.980362
H   75.521965   78.774712   10.962213
H   78.601868   67.851631   96.721527
H   46.457222   33.464912   33.600887
H   77.724792   72.537476   30.873777
H   51.811432    0.583401    0.720905
H   77.814262   98.767776   61.758080
H   76.920067   32.030239   81.817856
H   81.923363   60.109634   35.785938
H   83.043793   20.263983   33.141514
H   43.797054   95.098015   45.879253
H   75.641357   46.527920   44.232727
H   82.805611   79.334869   15.881938
H   57.456905   53.903851   22.235657
H   19.897110   59.770767   87.763039
H   68.385147   46.982300   56.583103
H   13.892137   15.821260   46.043121
H   36.443756    0.012857   17.037994
H   96.513000   96.475258    7.057626
H   26.109549   30.307541   37.030975
H   94.268463   14.745789   70.995735
H    5.073647   61.657494    8.728388
H   55.915211   11.354477    9.297938
H   21.422058    1.945478   83.722977
H   54.385990   74.500298   78.871574
H   37.988895   98.947128    3.038177
H   77.264198   57.598492   87.289650
H   15.442059   36.543922   70.776726
H   90.499802    1.748323   44.518951
H   73.689224    4.263936    0.313297
H   15.603683   36.501953   17.954475
H   95.335899   47.109539   45.688515
H   87.047348   17.570988   68.457672
