200
TIME:    0.185, STEP:   185
H    7.781099   62.657528   14.399111
H   27.474068   32.075230   87.664398
H   19.290483   66.730812   42.639153
H   15.988535   76.330910   45.937931
H   15.794092   82.335281   54.449268
H   91.407837   54.307781   67.177544
H    2.562393   55.343155   48.586796
H    1.656106   86.511353   27.024597
H   85.194855   88.330772   49.061142
H   12.797314   75.669304   98.241875
H   10.276605   93.419258   91.223618
H   30.550369   40.554813   10.121613
H    9.824267   85.182549   63.545860
H    7.003418   52.974888   39.615505
H   22.277309   71.521194   43.113918
H   30.903534   28.232506   55.509472
H   81.620056    5.142605   18.102385
H   37.868237   80.523033   44.499542
H   63.195477   31.693102   41.674183
H   89.881271   80.459984   39.602795
H   57.425018   74.012703   28.360271
H   91.253471   46.712090   72.694176
H   96.652206   62.941353   50.455902
H    7.445582   87.560753   91.757149
H    0.855876   10.491906   47.372898
H   18.706621   59.895576    8.773069
H   97.830772   57.693165   46.870483
H   93.248077   67.860565    0.586553
H    8.752099   58.201485   38.660419
H   95.534813   19.290966    0.528422
H   13.433299   49.151432   16.127569
H   32.926208   62.217270   92.249023
H   28.452225    7.802062   72.507347
H   98.246849   63.517914   37.328957
H   50.627827   92.073654   34.637447
H   34.857845   51.175976   78.845795
H   84.685867   75.616096   85.542030
H   35.635490   43.332603   17.640348
H   55.105812   48.370087   43.209080
H   90.610207   39.914661   65.844818
H   80.487946    7.793037   99.698677
H   10.601732   44.260204   41.461979
H   77.692154   89.045395   48.286007
H   37.403793   60.562885   16.781277
H   26.897858   74.617104   42.379128
H   41.833775   15.269862   42.089714
H   78.937698   28.906750   94.973030
H   91.454819   65.551445   49.624893
H   84.953331   30.839336   61.126678
H   64.085602   17.553301    8.039332
H   79.516602   71.192261   30.048431
H   23.240606   34.751324   62.358952
H   50.693630   95.996216    7.208661
H   23.225161   81.023041   80.888687
H   79.526932   77.608116   92.552109
H    6.010715   73.705002   76.847229
H    5.587447   16.537331   50.244572
H   66.807785   57.300823    6.296122
H   29.341717   73.414993    5.796248
H   44.375359   96.298012   68.010963
H   50.597645   16.449471   43.843426
H   88.948494   16.294592   48.644676
H   69.932076   24.067104   86.740463
H   22.793440   65.073868    2.439522
H   70.464241   75.259140   15.680554
H   40.897160   14.424371   31.874680
H   88.229591   24.322123   84.698799
H   97.649422   91.324883   86.182648
H   14.566167    5.110002   62.675949
H   45.553566   40.671371   50.985531
H   58.489292   75.640862   71.810165
H   33.686150   25.267517   45.149826
H   75.748184   24.712246    1.337379
H    6.073547   10.173608   58.971581
H   78.475327   99.981255   70.198814
H   51.923569   21.018379   63.236874
H   95.660049   27.902678   72.923546
H   28.592375    4.968418   49.848259
H   11.112411   27.242970   36.156605
H   69.104836   90.973686   96.869965
H   41.033772   31.031605    1.950013
H   24.218103   69.579285   89.557518
H   11.214294   13.062997   91.888947
H   26.467613   60.061119   92.058929
H   40.866779   98.742264   59.340862
H   23.117674   87.698685   28.927746
H   33.390179    2.669501    1.645235
H   75.788872   20.591339    9.367709
H   64.005684   71.913872   76.966171
H   23.719608   83.581909   55.470592
H   43.548405   34.417999   80.999123
H   84.438538   88.052902   97.167740
H   44.646950   17.482397   97.296257
H   62.494164   96.409622   67.594467
H   23.731249   57.670181   65.649094
H   71.549751   26.479610   31.647675
H   78.559517   16.181505   95.960487
H    8.406677   27.584055   48.072826
H   38.264168   70.328987   52.686337
H   66.248123   97.033600   27.236979
H    7.412375   78.905701   66.349922
H   88.527092   75.824471   66.167984
H   22.039297   39.179916   29.734209
H   19.233051   67.837936   87.978264
H   25.411648   28.195522   23.304375
H   85.245712   29.465668   46.465748
H   63.052906   29.413855   56.515198
H   65.075142   32.162655   20.868328
H   71.398819   40.783909   96.473061
H    2.599947   28.827238    5.268080
H   46.470913   96.544724    0.757154
H   83.785515   61.962032   89.884674
H   58.049297   79.636421   95.131699
H   63.410484   20.583078   76.372284
H   65.685661   79.678299   28.701113
H   16.283070    7.406332   76.453194
H   34.836254    7.668244   83.538925
H   41.050159   24.289322   35.077904
H   16.773594   55.648678   86.257935
H   69.331177   45.577145   47.291042
H   39.980537   21.393948   89.322083
H   20.662239   28.782940   46.570332
H   30.910406   24.142208   22.397575
H    4.887644   69.298157   20.273699
H   78.562111   10.313857   94.632172
H   45.707348   60.847473   26.593330
H   96.753746   48.933121   73.178864
H   76.631714   87.138603   34.538059
H   91.790878   54.474541   86.143661
H   65.079369   24.410032   65.564606
H   46.388763   87.149506    1.309497
H   83.811096   85.505875    8.029950
H   92.617348   79.918839   96.966026
H    3.617512   11.592782   49.030041
H    1.709039    2.364595   58.944237
H   63.822960    1.697438   84.491882
H   68.801659   86.424370   52.600662
H   90.749214   65.937996   84.067398
H   44.875626   43.564476   71.563095
H   43.418152   11.727798   96.985733
H   47.894764   64.686165   13.133339
H   59.770264   39.339703   44.964752
H   56.773556   55.748665    1.239341
H   60.233299   28.518671   77.213020
H   37.716679   71.591148   47.270069
H   43.924923   61.028027   32.480312
H   43.430443   97.018654   47.675705
H   44.154251   75.466003   69.140526
H   63.714939   67.088425   98.491219
H    7.706445   88.071602   92.056572
H   78.158852   60.375881   51.759407
H   31.472157    8.631531   49.875904
H   73.620705   33.895130    5.395441
H    8.455972   99.880272   77.311661
H   11.431580   52.426537   59.758091
H   61.869370   43.392529   52.368855
H   58.735546   59.234283   80.104538
H   45.264111   37.542351    8.435595
H   14.899032    1.941570    4.644541
H   64.296204   59.187927   76.130402
H   53.415691   86.643845   84.878250
H   46.186428   23.341326   36.020451
H   62.851879   36.967846   37.254921
H    9.255851   18.563927   73.552002
H   59.480804   20.222116    9.284131
H   10.966096   66.189049   62.602478
H   75.846909   98.456551   51.638641
H   23.584167   28.430180   45.738392
H   93.325623   28.349072   36.986805
H   23.963017   10.874767   91.022705
H   80.415710    4.979742   35.980690
H   48.062965   67.489807   57.289219
H   36.610264   79.817520   91.971573
H   71.900749   75.862717   72.970016
H   73.994171   95.450287    1.817384
H   99.209236   47.363762   23.233978
H   35.982758   51.203030   84.607208
H    1.242551    9.148407   64.176926
H   77.008125   22.658136   69.778114
H   88.916840   53.865120   85.609131
H   82.421959   83.218475   42.998081
H   18.118305   30.038906   67.608299
H   68.167114   90.222824    4.981465
H   50.283333   25.118477   75.166893
H   84.811714   90.719902   78.623428
H   98.109001   35.759674   83.678932
H   29.437000    5.466685   98.046585
H   93.063377   64.894844   23.602079
H    8.211138   60.928139   65.914825
H   48.613415   58.572498   65.008133
H   45.192841   32.844013   79.694221
H   48.103794   83.434525   25.324938
H    2.878795   16.215555   56.546314
H   36.064487   61.335857   32.204865
H   86.782043   56.711983   21.996195
H   75.193863   10.248487   30.319899
H    9.095689   84.059700    1.610378
H   30.507915   98.499283   48.517826
H   12.646748   11.458000   80.476860
H    8.581405   36.856049   98.512917
