100
TIME:    2.711, STEP:  2711
H   33.987946   73.408836   96.664017
H   25.858910   51.731796   49.009022
H   26.354429   68.944275   91.514671
H   81.931641   20.957251   91.563782
H   70.888870   90.056122   92.199005
H   85.980598   98.271065   47.225597
H   10.887478   44.397911    2.456604
H    6.807045   23.138170   59.279873
H   86.986382   25.641907   29.438843
H    0.757437   55.309303   13.848598
H   48.084412   75.325562   78.611801
H   52.370888   59.579071   99.957649
H   70.814583   97.687943   55.676994
H   20.848183   96.719795   63.549633
H   13.476055   27.869562   20.456545
H   92.520401   74.615082    8.004526
H    6.104619   61.280876   20.181376
H   59.077675   62.864708    5.558414
H   87.490395   92.082184    6.189598
H   19.480522   48.242588    0.910154
H    3.402107   86.328644   83.661362
H   22.286560   47.682877   88.411606
H   49.548271   72.573830   54.785736
H   67.160233   69.195892    5.730558
H   32.622185   71.165497   56.563835
H   34.228329   46.829288   35.069702
H   28.305897   29.783487   53.763256
H    3.796120   82.980034   56.384800
H   70.118774   95.055397   29.021170
H    4.945716   23.743057   98.905785
H   22.749422   65.155167   94.893257
H   36.931282   77.608711   48.293205
H   61.317913   70.132683   42.025246
H   92.646919   25.275681   57.540680
H   13.383018   53.989349   89.809883
H    8.265038   97.447502   11.320714
H   39.819191    5.252439   22.081358
H   51.939308    9.335041   13.749874
H   30.640541   22.348310   81.596375
H    7.847895   58.389275   51.330654
H   49.973194   49.203243    6.215838
H   87.971916   33.529381   30.165709
H   34.592266   79.757004   97.292351
H    6.243906   58.208725   45.800941
H   21.496786   24.929356   88.098244
H   43.111958   14.624958   94.177315
H   62.913296   72.270966   51.482498
H   56.384197   23.295599   36.319221
H   44.273872    7.925174   36.331024
H   82.741325   72.008537   94.054352
H   43.337788    7.913729   82.001190
H   36.881535   12.178272   96.088921
H   65.116264   37.728027   45.419273
H   13.914295   62.978516   51.445038
H   24.937401   96.165543   23.409315
H   96.958298    9.682819    0.337969
H   68.116112   11.322284   13.826212
H   24.189789   20.867134   43.727249
H    4.088493   53.315365    3.357870
H   80.120392   36.164700   86.503304
H   30.713095   52.496708    3.025695
H    2.695625    2.709023   72.691605
H   58.119205   22.283506   47.573166
H   29.198488   56.541664   53.539349
H   39.926472   44.321209   48.031693
H   34.804085    7.501025    6.480619
H   70.059853   42.088543   97.948624
H   93.098320   72.582031   95.804077
H   92.017418   54.991158   90.202980
H   85.309143   84.498604   96.024536
H   35.946800   10.942985   29.629299
H   50.432289   61.552292   55.109306
H   30.229860   84.209251   92.235588
H   70.531212   77.822693   42.085762
H   92.880150   32.502476    6.909796
H   89.746834   81.322868   13.514078
H   13.095831   91.575333   38.995228
H   59.348034   73.455940   64.160095
H   91.515579   45.555668   47.927284
H   66.572792   61.308689   87.366196
H   63.934376   57.328197   42.018467
H   44.733727   61.932449   60.085426
H   89.325180   52.507721   88.109314
H   36.662975   44.145355   15.809875
H   20.326187   79.310196   84.951454
H   88.896606    8.633133   30.043407
H   48.216286    6.241150   52.814285
H   99.596909   88.245316   67.551186
H   11.943327   43.227638    6.020372
H   26.649399   97.735794   21.130013
H   34.967926   19.818409   90.713089
H   78.877625   99.389946   85.179848
H   59.226917    8.864983   28.645962
H    9.255676   77.675667    9.607865
H    9.718399    6.894040   78.383018
H   17.839111   88.677315   27.422470
H   47.415695   23.259075   81.277351
H   16.818571   39.320221   12.657995
H   79.567741   48.536350   17.962921
H    7.603561    9.068951   36.577911
