100
TIME:    0.933, STEP:   933
H   54.227211   36.460396   98.291824
H   75.317131   55.332073   36.853542
H   95.794678   41.027401   12.384918
H   81.633209   94.209618   89.022331
H   86.814255   47.541588   40.407173
H   13.548542    0.198209   71.144371
H    4.072705   24.337950   63.414585
H   46.554337   69.317459   22.528770
H   30.693077   96.589142   41.358208
H   49.343132   29.780445   44.226303
H   13.469635    3.783902   49.877777
H   20.229664   70.457207   26.516722
H   83.913956    5.259518   32.396553
H    8.885105    2.200614   28.241756
H   91.849602   86.685303    5.923120
H   64.010330   30.129925   55.593246
H   49.054726   43.697769   58.302544
H   21.081932   49.328934   67.200974
H   59.792595   17.493006   12.517542
H   67.393929   85.970612   79.839180
H    8.910995   63.335243   31.921352
H   51.809986   45.331390   39.812473
H   73.287132   87.034187    5.655106
H   32.355743   47.871616   37.782188
H   96.215202   12.180584   43.446419
H   42.380932   99.810028    1.723446
H   81.625504    3.692493   18.480528
H   53.816498   99.988480   97.612656
H   31.458344   33.740696   13.069157
H   36.768002   67.748123   57.559292
H   52.803318    5.709981   35.581871
H   24.667212   26.734818   12.891563
H   36.076885    0.220060   81.848961
H   17.523598   88.218910   32.444649
H   57.580650   88.392403   81.541550
H   53.675842   57.776867   17.434011
H   69.285088   70.367531   81.982124
H   25.428627   41.877628   88.280846
H    8.775358   60.591194   52.703903
H   75.314690   24.838644   11.440187
H   71.480316   88.195183   64.325607
H   47.768456   53.732742   46.633976
H   19.277311   69.094864   68.863716
H   19.780912   28.407099   71.957161
H   75.724037   95.080307   35.947525
H   66.035530   80.743462   86.977058
H   45.931690   76.071625   35.595650
H   56.289242    4.989545   26.306654
H   92.303886   55.177315    7.255466
H   45.457783   44.950253   18.410019
H   43.473438   79.568245   63.254276
H   50.474586   77.164047   12.811478
H   28.233271   27.418579   48.683296
H   55.084263   91.981102   72.987442
H   66.484802   40.296642    8.323238
H   94.733627   11.551407   60.865280
H   55.398697   62.625664   44.723564
H   56.585388   88.777107   89.522903
H   63.859413   78.189835   39.856518
H   97.451157   99.500320   37.072838
H   18.554953   35.182327   41.651299
H   65.797150   19.261124   53.140884
H   37.517654   43.530266   69.550636
H    7.106252   46.869774    1.807295
H   69.356270   86.327049   82.449974
H   44.029579   95.890968    1.352064
H   12.712149   80.618103   12.107327
H   15.917287   70.896286   10.805396
H    3.401546   82.746902    1.715297
H   49.285873   95.069969   99.768494
H   92.404594   31.920244   50.957554
H   97.037430   20.561241   24.931101
H   46.158783   72.155251   37.825390
H    9.655435   90.337479   47.757637
H    7.156312   29.971247   72.125542
H   47.717014   67.370506   33.150883
H   51.665829   45.680046    7.543196
H   75.814362   89.714226   65.967773
H    6.272460   50.769382   28.091740
H   53.769485   58.142418   40.542328
H   29.139988   38.933971   35.751324
H   11.326450   50.320755    8.760561
H   76.829720   22.829458   18.763371
H   14.351179   91.999611   78.210823
H    6.899705   90.523941   57.308556
H   29.818394   43.325687    6.573586
H   29.467688   35.516228   68.032120
H   70.974625   30.595642   86.042778
H   75.044868   42.223793   20.566807
H   83.847214   70.893036   57.567074
H   62.204746   23.811499   53.164989
H   47.319508   65.676582   51.299408
H   45.146614   55.585197   91.094017
H   37.405960   69.827278   89.726021
H   40.461750   66.158112   37.525047
H   70.983551   58.887749   19.258507
H   88.545456   21.223173   83.531235
H   10.290811   24.181610   41.108147
H   64.266075   40.872089   66.897377
H   97.183884   54.739628    7.824503
