100
TIME:    8.530, STEP:  8530
H   40.472649   39.779320   91.336563
H   64.898575   67.093765   15.948394
H   26.393785   87.586655   23.210823
H   82.908340   81.213982   72.605415
H   18.762980   56.474369   34.421021
H   95.739502   91.966911   23.500137
H    5.913548   37.324677   57.510273
H   49.445114   26.555468   24.997269
H   43.944191   66.167938   63.155521
H   41.775429   38.863163   41.704720
H    6.815201    9.465632   18.097082
H   30.274918   51.255352   85.754646
H   99.819748   45.676643   77.418808
H   32.726097   78.784035    6.376034
H   84.211372    8.091171   40.692696
H   58.550598   65.663963   24.976513
H   38.175240   46.163303   49.907906
H   83.471695   79.769249    3.835445
H   78.121918   36.197674   12.756167
H   62.699818   24.670080   97.094704
H   58.094429    7.028234   25.725752
H   80.159752   55.407684   92.870010
H   71.854408   25.251451   88.296402
H   26.497572   38.871796   73.562790
H   24.502335    9.687965   99.535927
H    7.387432   74.639084   88.171204
H   26.527151   87.894974   69.218796
H   12.805403   54.591267   48.729958
H   96.647118   23.000254   53.954063
H   28.070602   79.721786   61.499054
H   51.765949   86.957283   34.512627
H    4.346783   16.838284    9.599205
H   71.199478   44.386635   66.246719
H   38.515427   91.999176   12.396307
H   68.667549   13.829277   44.025112
H   14.135965   53.537643   92.609444
H   97.937340   92.147224   80.596031
H   11.432249    2.847102   24.379868
H   85.017998   95.564415   17.691963
H   59.761955   13.633010    9.156816
H   52.286209   48.865944   43.307583
H   81.351898   75.053558   15.432832
H   84.696381   14.656727   17.604565
H   34.674625   55.821640   14.753299
H   16.741821   95.345970   86.046074
H   68.017052   25.608772   17.815367
H    8.380685   88.728096    7.346321
H   56.708248   83.226227   96.365639
H   14.372116   25.995697    4.207775
H    4.828512   60.565495   87.115044
H   42.915882   46.127296   43.347015
H   19.686819   72.218903   14.094810
H   85.805428   71.468567    7.462965
H   79.155396   68.033463    8.222095
H   61.623665    6.132841   72.896118
H    4.219864    3.560991    2.245468
H   37.016602   43.417030   67.261421
H   90.894714   71.333931   93.840965
H   63.019192   99.190697   56.638641
H   96.127541   83.432358   20.997093
H   97.779099   81.886353   49.329418
H   96.171532   48.546036    9.398518
H   53.163120   25.211321   48.542755
H   28.779228   88.229553   95.548172
H   70.895035   79.567474   89.930374
H   77.337593   18.221611   50.544529
H    3.190209   43.265926   78.890244
H   91.140182    5.376697   73.985931
H   82.036377   36.874931   25.245712
H    3.264672   77.083389   83.751617
H   51.163898   15.018977   59.830757
H   70.841736   68.370506   81.291183
H   50.819443   96.383110   43.041546
H   42.429073    9.556602   96.330544
H   73.369965   40.875187   48.051929
H   27.311304   54.266777   21.968927
H   41.489090   87.507080   42.023407
H   32.732029   92.969078   85.525452
H   70.556374   28.463421   12.851042
H   81.206383   44.350273   86.054161
H   77.804176   17.529123   89.809387
H   81.380234   99.788803   73.383522
H   57.416832   49.769932   42.297543
H   36.999779   42.090065   84.333549
H   36.990646   15.318624   20.865482
H   54.976055   22.374184   34.132416
H   36.854267   83.151665   30.286598
H   93.214897   22.494724    7.135113
H   32.707767   19.235579   58.426399
H   12.171897   58.330750   29.144434
H   73.105431   34.025951   13.600120
H    9.432520   37.016541   96.059746
H   32.242832   83.459282   78.642578
H   71.656357   30.678089    1.963578
H    9.111534   85.664108   12.097105
H   98.464584   58.891418   26.863533
H   85.531273   57.197899   46.620750
H   21.812441    8.525029    7.640474
H    2.363646   73.636803   30.560558
H   69.041214   59.737583   76.018600
