100
TIME:    5.987, STEP:  5987
H   12.446232   72.983788   93.664749
H   35.127968   29.290487   55.606014
H   82.673965    4.633154   53.066952
H   82.481506   85.985321   11.994508
H   41.546036   52.641876    3.373848
H   35.178822   94.721931   71.659660
H   39.191502   65.609886   58.644276
H   49.319901    6.554163   58.488285
H    6.456047   10.667802   23.226217
H   11.234533    2.348005   42.132999
H   43.358871    7.142556   63.050407
H   27.333649   23.787769   66.767860
H   62.024002   99.544044   30.123222
H   58.640282   86.622261   12.852833
H   53.322136   35.244186   62.984577
H   60.799667   88.084023   36.068085
H   42.668251   77.963768   18.408575
H   29.096098    3.511562   91.985390
H   38.516438   29.515276   78.779953
H   31.216888   78.671181   23.955378
H    8.999641   60.193432   94.746590
H   36.359863   52.031815    9.429886
H    5.807653   45.930336   61.055420
H   62.780331    8.450167   62.427814
H   15.455136   11.360168   80.755226
H   19.254198   49.669594   27.427265
H   45.813469   93.604019   18.757376
H   27.376404   35.892616   64.673965
H   41.352699   92.279724   74.163635
H   30.560604   42.661644   59.337814
H   51.682693   58.920605   35.706551
H   43.780003   87.097672   45.017464
H   92.073112   30.444441   37.153198
H   31.067383   25.049797   19.528269
H   31.951622    6.347963   89.295151
H   93.077591   54.356407    0.603180
H   54.029640   85.277954   80.217567
H   16.539600   49.390079   44.926922
H   92.358368   50.969658   64.127495
H   99.285324   51.700909    9.078714
H   26.082272   61.608986   83.396828
H   95.662125   65.081161   85.606224
H   62.810375   99.402206   33.921623
H   97.054352   13.134481   66.112144
H   37.327930   95.676651   68.434067
H    0.844178   77.109695    7.484042
H   88.508102   50.431717   82.934761
H   56.559155   57.034134   39.019535
H   40.035133   36.606285    5.649190
H   51.443256   21.857321   64.924118
H   43.090496   91.636978   16.539669
H   96.090141    8.190254   81.026741
H   33.060635   56.723389   55.154346
H   38.045959    9.517329   96.006981
H   64.101128   83.277191   51.271374
H    1.052561    6.235980   88.815186
H   75.800941   16.794685   25.401085
H   80.251373   11.489153   59.344223
H   62.457565   91.734077   51.859688
H   63.937080   87.968597   93.326073
H   37.365620    0.149650   47.601665
H   86.427589   72.215927   24.460876
H   80.518379   98.740517   22.923889
H   54.157036   74.376846   64.596024
H   69.958755   82.672745   53.112431
H   33.554955   44.641502    0.181501
H    7.219961   55.346699   56.114822
H   66.802696   59.940342   52.415821
H   55.294819   19.598686   84.738495
H   51.679405   49.271622   89.126221
H   31.919308   88.045288   90.329994
H   80.311234   52.828140   94.961716
H   16.627655   22.165154    8.239502
H   98.414467   70.500755   47.425957
H   50.827518   37.176334   55.253433
H   67.197533   91.283257   93.080597
H   10.535384    7.632288   96.931084
H   13.260478   59.246307   45.080078
H   48.610332   35.933018   84.479347
H    5.917239   82.879158    5.135810
H   28.028490   91.219925   37.817524
H   90.553314   83.297348   86.128197
H   96.565102    7.242691    0.114447
H   62.044472   24.479790   16.597591
H   60.812050   74.395531   67.379898
H   13.498272   28.965832   57.538681
H   67.012917   68.049110    9.026785
H   52.316429   25.987505   33.501900
H   79.930038   60.825539   79.224861
H   37.007374   62.956638   38.238029
H   69.035362   96.712936   59.896282
H   21.276270   45.758667   47.601242
H   69.231735    7.157934   81.988480
H   25.888184   76.397530   30.493151
H   53.080498   13.450123   53.660648
H   88.423218   59.311371   58.212616
H   87.382683   11.262254   92.871231
H   26.721033   82.694885   58.690582
H   23.506012   62.657902   43.563591
H   11.087528   24.999123   20.993572
