200
TIME:    0.896, STEP:   896
H   29.628523   60.297871   26.556770
H   33.810852   42.455009   16.528648
H    4.388474   97.851166   77.659721
H   39.954880   84.641243   27.345459
H    8.245223    0.355477   44.226799
H   68.277771   35.010124   46.132790
H   12.863494   54.838676   62.348751
H   17.589220   17.212524    1.787426
H   14.068712   77.671631   31.716282
H   87.768753   65.708824   70.197212
H   35.058590    8.607437   13.691887
H   33.490448   59.532425   43.999565
H   27.274883    8.780016   34.405449
H   73.398079   55.974636   73.876640
H   87.950455   76.994514   41.364517
H   10.179424   98.937607   40.171700
H   15.071247   38.441208   83.586716
H   20.985367   14.703675   31.841490
H   86.851715    5.952734   52.140755
H   92.143288   70.695885   12.040814
H   65.957756    9.504913   95.786469
H   75.424782   73.888832   45.295029
H   75.361046   57.771805   33.395851
H   22.503036   94.040016   89.529076
H   31.759506   39.087288   22.002514
H   18.118063   91.449539   85.290413
H   11.599704   71.959602   75.457596
H    9.565797   97.190834    2.457382
H   38.698048   36.590279   34.497116
H   63.405449   38.338192   75.933762
H   12.505032   78.855995   16.996845
H   19.996914   78.881332    9.754377
H   11.272835   23.100870   81.191971
H   74.715370   64.293617   49.756485
H   16.507109   62.694687   29.228525
H   11.627831   34.965652   86.993370
H    5.092639   60.270187   90.879738
H    0.466734   61.724369   85.673004
H   28.791565   22.910683   59.013359
H   83.791611   36.990856   38.071381
H   80.699501   74.579086   23.298347
H   45.991165   29.350725   20.378914
H   64.890335   72.712227   74.687050
H   35.819839   95.094978   42.209431
H   51.191193   96.309677   68.037010
H   31.828260   96.766304   49.822338
H   92.336212   94.072632   10.561370
H   74.145241   65.540596   24.064651
H   12.450217    3.858180   61.639294
H   38.641994   20.761892   77.960022
H   62.603012   62.193016    1.871136
H   96.061943   46.988995   77.645485
H   69.871056   75.662590   16.499527
H   12.643103   96.027206   91.417641
H   49.431808   61.795700   69.557655
H   96.896660   56.188080    0.129190
H    3.558382   19.227882   42.617725
H   74.575668   73.829269   93.462578
H   14.338907   87.149826   22.992313
H   27.930988   92.305580   54.867401
H   48.294945    2.577687   23.069721
H    1.726703   17.978899   54.095436
H   89.519943   38.795349   62.753185
H   40.020927   66.088249   18.314201
H   81.893661   85.858612   44.755116
H   13.006244   42.046745   44.654800
H   61.671242    9.324435   99.388344
H   93.667839   92.941383    0.259247
H   39.856079   14.718146   53.676704
H   41.460781   53.063641   50.947559
H   58.177383   87.938202   90.828461
H   13.703762    6.579076   40.172848
H   98.314102   37.004162   77.529327
H   29.237226   94.545464   79.670815
H   87.132828   11.490691   36.767624
H   69.894936   95.917274   58.590790
H   92.654877   54.371521   62.866215
H    2.258078   17.915342   25.535652
H   16.521746   58.914818   20.396582
H   58.390026   87.008377   63.151276
H   71.210258   19.014982   91.394379
H   55.481869   56.792210   67.577446
H    8.440341   20.862070   71.085991
H    3.282015   83.310524   15.231851
H   15.547928    6.260818   39.191559
H   43.148239   62.821930   14.127085
H   65.256294    4.151068    3.275279
H   69.876167   94.129181   36.184868
H   85.764969   73.653854   79.533203
H   20.158424   15.451826   47.648464
H   13.744272   40.555820   77.836639
H   79.485970   94.291077   12.681644
H   78.423752    9.463631   77.046600
H   30.611609   70.865654   87.117241
H   41.746635   48.052544   95.261436
H   42.105568   42.376106   98.217995
H   88.204277   91.588524   26.581505
H   96.437767   39.936497   56.374496
H   22.153404   63.206619   55.206017
H   78.610558    8.586496   27.410563
H   39.134670   98.564087   99.829933
H   14.964959   86.581253   62.246071
H   36.777664   13.195655   39.669491
H   53.397057   69.150665   16.213581
H   24.469141   18.851822   46.355785
H   13.394175   94.655502   13.177596
H   89.157387   36.937351   51.636379
H   60.885410   59.461449   93.375618
H   89.467827   31.809074   30.853535
H   25.439791   18.913965    8.747896
H   55.825462   90.366219    1.257395
H   12.333801   79.841492   97.983452
H   45.700424   87.887085   79.666451
H   61.002007    5.254860   58.038361
H   41.958900    9.284984    3.771136
H   87.267067   86.607857    8.528507
H    5.603385   17.679960   91.827560
H   37.442867   59.285480   20.865715
H   43.774803   82.342636   51.119022
H   88.094521   59.767635   73.815140
H   47.401253   26.118687   66.023857
H   89.984955   11.939869   67.484039
H   48.051826   94.155228   43.490124
H   94.412567   43.712944   89.137688
H   57.287224   92.710442   71.116966
H   71.755096   80.300964   12.865555
H   79.080727   52.252914   45.720047
H   61.079674   92.714989   40.542980
H    0.540614   28.738003   69.940681
H   99.541214   21.040062   77.677513
H   75.089790   61.762848   28.480801
H   56.520439   92.557724   24.797077
H   90.295662   14.510302    2.255660
H   68.754181   29.822048   57.780560
H   36.832890   89.508575   26.272476
H   44.886032    0.784935   74.017174
H   69.978775   88.236153   87.995522
H   96.813805   43.738468   72.833260
H   63.459961   53.507584   71.394936
H   43.803291   77.628685   77.229706
H   83.094345   43.777344   36.100586
H   27.039040   60.942772   61.539310
H   33.917427   68.834267   77.257660
H   27.653755    2.781540   88.995033
H   71.137024   48.010849   70.519470
H   69.976707   73.277206   98.427818
H   60.246391   93.904991   42.584812
H   24.739967   48.999870   65.061302
H   82.722382   37.403130   91.423096
H   30.373436   95.836784   65.447983
H   53.098846   72.450821   46.391865
H   61.401810   88.957573   27.594772
H    6.650570    7.309658   80.436783
H   27.250778   16.200411   59.741047
H   39.625416   71.204483   72.620476
H   82.976097   45.155491   74.244415
H   66.177963   80.557388   88.523361
H   55.372665   26.134628   25.092876
H   82.357689   99.262375   78.276375
H   56.325001   30.177618    3.415365
H   60.399734   57.758385   65.973869
H   12.803278   19.656734   29.860931
H   93.456902    5.968425   36.959286
H   35.354126   39.450962   43.133270
H   52.673058   44.347580   16.270182
H   23.215973   43.566433   58.715824
H   63.603813   86.956612   59.175983
H   24.205273   60.779182   75.139175
H    2.987278   26.036879   35.307922
H   56.409660    5.509259   83.016144
H   66.832764   13.435180   35.921021
H   23.500360   41.080986   59.472580
H   50.347809   49.265430   71.966019
H   63.147789   58.848167   89.459122
H   40.948120   90.101730   68.386330
H   21.157097   51.209175   23.928802
H   28.678669   73.414795   14.348450
H    7.544051    9.826469   73.268387
H   58.824429    6.129281   61.463184
H   55.095802   61.491966   95.639030
H   69.441132    8.697892   26.467373
H   32.459282   30.906826   93.564529
H   35.429638   89.474274   19.063797
H   65.766762   26.434170    1.323799
H   94.006241   59.881622   75.694199
H   12.993416   41.759171   87.237404
H   54.194275   93.288277   13.800558
H   58.905304   95.011665   48.481087
H   87.620277   64.098671   74.040726
H   61.542709   54.704830   73.991104
H   79.157135    9.320671   74.616890
H   42.275169    2.756711   16.268736
H   18.671761   33.130592   72.834846
H   23.643297   89.711670   46.533680
H   62.382462   24.954552   19.670441
H   76.929703   11.993141   20.578854
H   13.821784    3.447194   25.608381
H    9.844439   84.368462   28.466164
H    3.165416   13.447435   48.678444
H    1.165684   12.767567   88.634903
