100
TIME:    0.760, STEP:   760
H   65.926674   52.325417   98.450211
H   80.129433   45.951649   25.940733
H   92.822296   28.581066   14.416222
H   81.604172    1.337118   98.504387
H   88.363800   33.674873   45.098045
H   16.231209    0.386489   54.011494
H   13.139399   12.655741   49.885761
H   60.151794   54.350811   38.413589
H   34.945747   13.222586   52.248581
H   54.070961   27.297081   37.451332
H   29.561676   96.822952   66.541527
H   26.833050   61.785561   38.830956
H   94.919159   15.726538   49.590698
H   17.450886    2.734013   15.075901
H   89.745705    2.138395   14.239388
H   70.966125   45.262409   69.953598
H   62.963676   32.257004   42.551033
H   17.384933   57.741882   73.198532
H   57.098709   10.234958    3.403656
H   72.076881   89.597656   68.036766
H   19.177063   80.557159   36.616196
H   35.221668   45.103050   54.543713
H   75.596931   88.441185   10.605005
H   48.429306   45.796757   50.631271
H    2.402653   25.900791   42.170090
H   43.174183    4.964641   17.938658
H   96.542847   10.884122   15.047506
H   68.413506   91.913422   91.894913
H   27.696671   18.045206   21.246506
H   30.134443   72.029831   43.806087
H   45.997990   90.195869   49.271721
H   13.743910   31.514122   28.907051
H   23.890823   12.877195   66.263756
H   10.213813    4.073308   39.733055
H   61.880836    1.469863   71.006226
H   38.634430   44.187328   18.029280
H   52.692387   76.702980   68.350349
H   32.578445   45.044033   76.071907
H   16.553089   64.284233   69.285202
H   91.609993   41.034664   97.828972
H   83.303848   82.258339   60.248585
H   63.316704   45.967857   38.506123
H   17.787161   68.057434   56.367851
H   30.827692   25.507971   55.041512
H   90.731133    1.906491   21.142855
H   68.245018   77.491264   86.298637
H   44.104969   66.740036   34.117378
H   56.280003    3.208323   15.602386
H   87.246086   69.505173   14.156816
H   41.829418   42.317081   30.509407
H   43.486637   96.270073   61.430195
H   42.066917   93.216492   24.169090
H   24.644503   26.415466   58.731583
H   59.090115   94.803017   65.353226
H   80.256485   25.130140    6.855196
H   94.517166   11.733221   66.754608
H   44.431770   67.617470   28.269875
H   69.467468    5.114615   93.978836
H   50.215759   70.880310   53.138523
H    8.867301   86.203796   41.993370
H    7.641733   43.227028   55.139206
H   71.937256   20.871384   60.969124
H   25.782906   55.327400   81.419044
H   95.226814   45.928696    6.504766
H   62.489937    0.143620   66.339455
H   54.657295    4.491267   91.122993
H   26.592722   74.636383    3.754514
H   27.867531   61.002426    2.534995
H   94.779625   95.177582   12.565760
H   45.781578   86.369286    0.132600
H   97.897957   43.692295   53.032413
H   11.301964   26.302742   12.264822
H   57.438522   80.713387   42.261524
H   13.462974    1.284708   58.039543
H   98.815353   29.725088   59.011158
H   43.626690   56.282555   44.790951
H   35.957874   60.673943    4.482052
H   67.686508    1.025711   56.413395
H   97.980064   51.276218   26.162727
H   62.253708   67.564583   55.446472
H   25.754482   37.144207   25.411762
H   98.346107   49.190933   23.227329
H   65.882591   19.942209    2.286189
H    2.450027   77.195778   94.012489
H   15.323565    1.344497   74.079018
H   33.800488   36.970440   94.559837
H   17.913412   48.094734   59.782833
H   68.189667   44.446449   87.840462
H   71.454781   51.856316   21.982384
H   99.142044   78.012497   51.382092
H   55.124882   14.470011   49.511547
H   34.519260   52.665154   48.003654
H   34.046379   50.402008   77.710381
H   20.684336   59.333603   78.060875
H   43.452610   81.653564   33.549553
H   56.694473   65.719475   28.194130
H    2.277489   11.295152   93.480530
H    9.655616   22.708618   43.875946
H   72.507439   40.126354   81.389717
H   86.440018   59.183681   24.487234
