100
TIME:    8.550, STEP:  8550
H   39.120110   37.945213   91.318253
H   64.346207   68.177444   17.209457
H   26.737566   89.025558   22.976067
H   82.911697   80.390007   71.509224
H   18.583765   58.077457   33.878723
H   95.429443   91.945244   25.480804
H    4.865365   38.675232   59.074299
H   47.873154   28.285662   23.160873
H   43.452553   64.245026   61.896519
H   41.229164   39.150333   42.487801
H    4.954849   10.270343   16.170584
H   29.511520   52.257854   84.331001
H   98.544418   44.466164   75.431198
H   31.735823   78.722389    7.898098
H   84.454292    6.304672   39.730934
H   57.746460   63.914696   23.316280
H   36.566963   47.486088   51.728584
H   83.899246   78.796043    3.142191
H   78.433502   37.036755   13.809787
H   62.161030   24.245352   98.456398
H   56.907600    5.037134   25.182920
H   82.077171   55.434235   91.166824
H   71.587379   25.088869   87.724197
H   24.639280   39.111053   72.077499
H   23.787079    8.101814   99.683632
H    7.293095   74.049484   86.289185
H   24.802526   87.063675   69.615524
H   11.117895   55.524799   49.391121
H   97.081993   24.814753   53.008629
H   28.837433   79.226791   63.089020
H   52.553150   88.750801   32.930290
H    5.609581   16.285763    7.747706
H   72.608170   42.923317   68.048477
H   39.360458   90.166290   11.553793
H   68.169807   12.314995   45.242001
H   15.874475   55.104263   92.546577
H   99.855675   91.414803   82.171959
H   10.605642    2.481072   25.791153
H   84.173882   95.128624   15.753868
H   57.878258   11.760642   10.730378
H   50.919327   49.552132   43.778774
H   79.666412   75.131989   16.453873
H   84.868500   14.776699   19.049114
H   33.397617   56.157486   16.708714
H   15.006973   94.557091   87.757500
H   67.758873   25.990166   17.896620
H    8.537049   89.815742    7.538372
H   56.709469   83.432220   97.603127
H   14.956680   24.339355    3.409938
H    5.248320   60.869907   85.716728
H   42.914509   44.196449   43.557892
H   20.658880   70.363129   12.781905
H   86.220161   71.584534    6.301390
H   78.692139   67.707230    9.104587
H   60.031258    7.885580   73.066101
H    4.244774    3.539953    1.564618
H   38.284454   42.839943   69.163582
H   89.405457   69.445198   93.325829
H   64.596642    0.035728   55.103149
H   94.807655   84.969528   20.428246
H   99.040695   80.956177   47.770123
H   95.461693   48.359879    8.493557
H   54.521000   23.846498   47.171295
H   30.152596   88.338501   95.005264
H   71.688797   77.970184   91.792862
H   76.108955   17.227348   51.727085
H    1.585528   43.957302   79.855820
H   89.758652    6.520553   74.942047
H   83.033081   35.437859   23.991287
H    3.670870   78.088028   83.709198
H   50.528675   13.658084   59.590889
H   69.194702   67.706444   82.757248
H   49.515427   95.393730   42.528698
H   41.988857    8.290810   95.142189
H   74.333405   40.904636   49.568348
H   27.784174   55.548668   20.623178
H   43.305496   85.776123   42.378174
H   33.671513   91.661400   86.630188
H   71.515541   28.404675   13.074240
H   80.225548   43.260796   84.331139
H   78.195717   17.736032   91.004761
H   82.881088   99.918503   71.710243
H   58.681938   50.104404   44.202297
H   38.375664   43.801491   82.506767
H   36.016830   14.067518   18.926777
H   54.515697   23.108818   35.521271
H   38.190022   81.697502   31.240273
H   93.536552   20.894306    6.927727
H   33.122807   18.122068   58.262825
H   10.403594   57.507843   29.859385
H   73.923912   35.105816   14.022483
H   10.912317   38.520752   96.440910
H   33.524876   84.059258   80.189209
H   73.589340   31.891468    3.312103
H    8.765694   83.872726   12.556662
H    0.116502   58.101624   25.830513
H   83.943748   58.345665   45.470543
H   21.773836    9.514638    7.238939
H    1.410909   73.723167   28.885296
H   70.283585   59.224430   74.092026
