100
TIME:    6.016, STEP:  6016
H   10.485106   70.324333   93.638199
H   34.327034   30.862043   57.434666
H   83.172668    6.719454   52.726444
H   82.486374   84.790558   10.404864
H   41.286285   54.966354    2.587586
H   34.729015   94.690514   74.531517
H   37.671719   67.567970   60.912113
H   47.040558    9.062984   55.825512
H    5.743172    7.879523   21.400774
H   10.442339    2.764429   43.268467
H   40.661362    8.309406   60.257095
H   26.226723   25.241398   64.703575
H   60.173447   97.790398   27.241631
H   57.204353   86.532875   15.059826
H   53.674812   32.653763   61.590466
H   59.633667   85.547585   33.660858
H   40.336250   79.882027   21.048559
H   29.716269    2.100525   90.980019
H   38.968014   30.731943   80.307922
H   30.435646   78.055214   25.929834
H    7.278740   57.306309   93.959373
H   39.140121   52.070312    6.960278
H    5.420434   45.694481   60.225723
H   60.085697    8.797091   60.273922
H   14.417960    9.060249   80.969398
H   19.122000   48.812241   24.700218
H   43.312653   92.398636   19.332853
H   24.929462   37.246239   65.632431
H   41.983269   94.910858   72.792755
H   31.672508   41.943901   61.643265
H   52.824135   61.520985   33.412163
H   45.611088   86.296295   42.332787
H   94.115715   28.322741   39.765747
H   32.292763   22.392113   18.306623
H   31.230671    4.155739   91.061188
H   95.598541   56.627785    0.511979
H   56.811005   84.215942   82.502663
H   15.340996   48.859295   46.973286
H   91.134399   50.337761   61.317146
H   96.553741   48.985920   11.360380
H   24.100403   62.603958   84.080055
H   93.218170   65.194885   87.086845
H   63.060169   99.576111   36.016220
H   95.202469   13.621237   68.947716
H   34.812511   94.532333   70.915634
H    0.469950   77.662827    7.601859
H   88.734665   52.008804   83.213097
H   56.560703   57.332825   40.813892
H   40.882751   34.204590    4.492316
H   52.051479   22.298719   62.895798
H   43.088505   88.837250   16.845329
H   97.499519    5.499246   79.123085
H   33.662220   56.891541   53.469952
H   37.374458    9.044126   97.286705
H   61.792137   85.818497   51.518070
H    1.088680    6.205475   87.827957
H   77.639549   15.957906   28.159218
H   78.091949    8.750380   58.597275
H   64.744720   92.959373   49.633446
H   62.023468   90.197495   92.501244
H   39.194935   98.800919   45.340687
H   85.398323   71.945999   23.148628
H   82.487083   96.761635   20.935272
H   56.148529   74.534821   63.808750
H   71.109711   80.356674   55.813038
H   31.773445   43.199821    1.896257
H    4.893188   56.349194   57.514908
H   64.799477   61.598850   53.802189
H   56.740261   17.514931   82.919800
H   52.266830   50.730339   89.065155
H   30.998344   86.072159   89.982185
H   77.919937   51.865692   97.084854
H   14.736721   20.730774    7.495872
H   97.775932   68.665245   45.702843
H   52.225613   37.217709   57.451797
H   67.882973   93.141777   91.129150
H   13.168399    5.118750   97.443947
H   14.622951   57.349953   46.681725
H   50.000904   35.847836   84.802818
H    4.495111   81.299416    2.637463
H   28.596003   91.519943   39.550816
H   92.729996   83.485413   83.702385
H   98.399284    7.727649    2.876295
H   64.039513   26.961468   13.948936
H   59.400017   72.581703   64.568665
H   12.830753   30.031052   59.552521
H   68.949760   65.940575   10.409613
H   52.782829   23.666899   33.201218
H   80.531845   59.210838   78.987679
H   34.443279   61.763424   39.274597
H   70.222160   98.278961   60.508709
H   23.421976   47.939774   48.153709
H   71.090698    8.028119   84.231094
H   28.690899   78.156929   32.448578
H   52.579140   10.852398   54.327061
H   90.818497   58.166168   56.714737
H   85.080772   12.926459   91.203430
H   26.665056   84.129929   58.108467
H   22.124512   62.782909   41.134460
H   12.888800   24.254940   18.199818
