200
TIME:    0.534, STEP:   534
H   18.505209   61.499271   20.366795
H   30.584719   37.170227    1.832464
H   11.975678   82.006485   59.829277
H   27.752827   80.410103   36.811668
H   12.088670   91.180634   49.431488
H   80.054260   44.835373   56.847351
H    7.618758   55.095528   55.341961
H    9.477002    1.581872   14.636615
H   99.368187   83.098648   40.547291
H    0.511885   70.780663   84.475929
H   22.441118    0.874658    2.252343
H   31.993530   49.870125   26.750700
H   18.390041   96.765114   49.242058
H   90.507683   54.447338   56.432858
H    5.427523   74.207817   42.255211
H   20.730846   13.852818   47.980804
H   98.038010   21.487972    1.157890
H   29.580906   97.300446   38.286228
H   74.807327   19.058121   46.811783
H   90.991600   75.667198   26.073826
H   61.613380   91.434479   12.371082
H   83.483833   60.052010   59.245087
H   86.201271   60.403839   42.081841
H   14.835477   90.739616   90.664192
H   16.025299   24.528242   34.919643
H   18.417723   75.383911   97.246422
H    4.589200   64.695961   60.902695
H    1.257464   82.257561    1.504870
H   23.451305   47.593452   36.616829
H   79.763885   28.640226   88.455948
H   12.977652   63.732151   16.554260
H   26.579762   70.396957    0.841464
H   20.019585   15.311758   76.770264
H   86.696236   63.898674   43.429108
H   33.879704   77.652695   31.982771
H   23.457672   43.218620   82.847771
H   94.702789   68.083435   88.162086
H   18.372669   52.360348    1.948624
H   42.189255   35.872898   50.966736
H   87.263245   38.479488   52.212006
H   80.591789   91.489838   11.282823
H   27.972918   36.941887   31.113499
H   71.408279   81.028130   61.245167
H   36.626297   77.513100   29.263155
H   38.822289   85.265076   54.973503
H   36.922501    6.187201   45.885334
H   85.514465   11.808405    2.625103
H   82.958275   65.546120   37.078445
H   98.450348   17.595272   61.378300
H   51.596409   19.128263   93.274429
H   71.214432   66.774910   16.217251
H    9.899508   40.758282   69.862617
H   60.105736   86.011971   11.772011
H   18.030979   88.387955   86.056908
H   64.754501   69.846466   81.265099
H    1.536783   65.107277   88.275360
H    4.591446   17.858009   46.500874
H   70.620712   65.413940   99.997093
H   21.977468   80.156845   14.237208
H   36.303509   94.338295   61.559341
H   49.467346    9.640387   33.646774
H   95.220146   17.121347   51.319786
H   79.546936   31.296888   74.966187
H   31.249378   65.571785   10.231674
H   76.074463   80.461975   29.951746
H   27.206865   27.983255   38.147903
H   75.193214   16.960537   91.909279
H   95.695030   92.118355   93.092247
H   26.980108    9.826236   58.258598
H   43.544590   46.754215   50.966892
H   58.336189   81.677109   81.145447
H   23.877693   16.093992   42.706837
H   86.824844   30.745831   89.651047
H   17.443476    2.502368   69.131630
H   82.724930    5.630755   53.788849
H   60.744957    8.697124   60.956306
H   94.184937   40.895119   67.986977
H   15.665842   11.323519   37.914223
H   13.765751   42.791767   28.426907
H   63.846043   89.027283   80.318878
H   55.846142   25.133150   96.768921
H   39.563999   63.303249   78.768425
H    9.852677   16.891233   81.677650
H   15.086744   71.473274    3.433675
H   28.438820    2.432769   49.450417
H   32.950142   75.487732   21.662682
H   49.031967    3.396740    2.445346
H   72.886574    7.602009   22.531227
H   74.684464   72.772827   78.229614
H   21.971573   99.225029   51.631039
H   28.918568   37.430798   79.446793
H   82.007530   91.114960    4.782850
H   61.225994   13.546322   87.356552
H   46.844387   83.871162   77.177376
H   32.574562   52.949287   80.184547
H   57.096840   34.282532   15.238391
H   83.293724    4.110288   10.991024
H   98.812538   33.007103   51.377186
H   30.356071   66.832916   53.923141
H   72.316322    2.704656   27.322184
H   22.983427   88.555176   82.783852
H    1.504780   81.104523   64.242882
H   29.273741   26.425489   34.611179
H   36.002983   68.482300    1.837496
H   24.949011   23.609093   34.619343
H   99.062248   12.378721   30.126265
H   79.585350   33.747334   54.890976
H   63.018932   45.562485    7.373103
H   80.268135   36.378540   13.348988
H   13.811061   23.961229    6.976176
H   51.062668   93.511955    1.002701
H   97.799088   70.738464   93.860023
H   51.987755   83.686325   87.540459
H   62.228264   13.059071   67.372498
H   54.039192   94.211090   16.464199
H    2.040193   97.196754   92.197495
H   20.487186   12.582524   87.607468
H   39.279491   41.467464   28.101738
H   30.027643   68.751617   69.009232
H   78.541313   52.542660   60.310112
H   43.623055   23.713123   77.885963
H    5.603600   20.515385   56.836212
H   39.324409    9.422882   32.750706
H   99.745682   56.739166    4.990496
H   68.119164    1.672764   83.089546
H   58.493435   70.396210   19.854807
H   88.078804   50.562668   59.700485
H   68.997871   89.875816   37.485622
H   96.085747   41.841557   78.190300
H   81.995239   22.755856   71.510323
H   60.476891   74.688263   14.646740
H   70.415260   88.967331   16.260227
H   91.477730   96.898613   99.562119
H   86.504532   20.540882   53.325710
H   18.949970   96.054138   42.907043
H   54.527618    1.249529   79.350288
H   69.379456   87.313698   69.974510
H   93.726067   55.041302   78.553032
H   53.997894   48.445129   71.480553
H   43.607201   94.989616   87.288330
H   65.172760   54.422859   24.406952
H   43.703781   49.943741   53.100506
H   45.554443   62.172329   89.467758
H   44.241371   15.885431   82.996315
H   54.121319   60.016571   58.682224
H   56.712341   67.040970   15.765472
H   51.684685   95.490288   45.176800
H   34.624596   62.474892   67.138206
H   73.044891   52.517303   95.021774
H   18.833775   91.884590   78.994812
H   65.857368   66.302963   49.124706
H   46.163353   98.974770   38.939034
H   89.833633   20.845440   93.144012
H   17.681690    7.891078   68.687309
H   25.270748   61.643330   66.072151
H   72.229774   44.257893   63.106026
H   62.388714   69.700592   84.236984
H   50.225975   31.942780   16.611954
H   98.925972    0.626555   91.701683
H   60.383526   44.948029   89.523575
H   56.843864   72.465187   75.598885
H   29.800337   21.532715   32.997002
H   77.874596   21.751633   37.109806
H   22.066393   28.816494   58.620293
H   56.139168   32.064293   12.713303
H   16.979046   55.084690   60.694683
H   69.837288   92.811714   55.338406
H   23.889042   44.308945   60.170002
H   98.067818   27.214113   36.162712
H   39.889709    8.241065   87.092621
H   73.748413    9.130160   35.951401
H   36.006447   54.527008   58.360939
H   43.353447   64.821426   82.151688
H   67.605667   67.505714   81.060364
H   57.773254   92.824905   85.407555
H    9.984429   49.248924   23.568808
H   32.397488   62.105286   99.206566
H    4.335655    9.481239   68.639542
H   68.082893   14.544955   65.696259
H   72.315163   57.608818   90.532387
H   76.050217   95.724983   34.883629
H   25.157709   30.464931   80.349121
H   52.098728   89.858170   11.891296
H   57.883400   25.764423   88.006233
H   89.324921   75.582687   77.185593
H    5.415211   38.704575   85.425636
H   41.589233   99.488609    5.779482
H   76.296616   79.677925   35.813904
H   98.104225   62.484463   69.903488
H   54.959862   56.674023   69.417496
H   61.865078   21.297394   77.201973
H   45.242767   92.918915   20.879629
H   10.630891   24.518391   64.541039
H   29.967222   75.264481   39.238277
H   74.805405   41.123447   20.854580
H   76.045914   11.104864   25.538429
H   11.415530   93.576042   13.389997
H   20.365183   91.563057   38.675308
H    7.992753   12.434530   64.868355
H    4.941358   25.032120   93.664215
