100
TIME:    0.123, STEP:   123
H    9.004680   10.741565   99.033401
H   97.848717   11.413616   85.759338
H   81.877747   82.753090   21.895645
H   81.497253   27.583139   33.420959
H   94.069351   82.616516   62.370216
H   26.109005    1.079781   90.926445
H   46.523487   69.644234    0.071243
H   10.218740   99.243774   96.900047
H   50.604424   74.467407   92.344383
H   71.479210   18.153133   12.505342
H   88.813873   71.191711   27.901814
H   51.147251   29.855858   84.174049
H   35.438507   54.265747   12.904002
H   48.991795    4.698030   66.601524
H   81.998985   59.034561   44.860432
H   96.577454    0.978808   22.829731
H   14.177147   90.131294   84.553719
H    3.773194   88.719040   95.282028
H   47.179604   83.513412   69.841476
H   89.319893    2.953268   24.579325
H   56.977554   43.972763   53.902946
H   74.141823   44.262283    8.782001
H   84.101799   93.621864   28.831791
H    7.613540   38.156956   97.939148
H   25.183661   76.418510   37.466568
H   46.091221   23.948238   77.642174
H   51.472866   37.364147    2.407112
H   22.162354   62.180401   70.841721
H   13.845696   60.251431   51.357727
H    5.710382   87.795425   93.167137
H   20.940218   33.072319   99.678856
H   73.523682   49.111908   87.877373
H   79.022278   59.482872    8.877767
H   83.299095   62.450470   66.569557
H   77.714470   49.622360   32.218292
H   83.249352   94.148003   20.221106
H   91.596886    0.030150   18.156799
H   58.904655   56.702991   31.121157
H   45.191311   77.882301   30.337730
H   51.607716    0.667850   47.711853
H   26.836056   60.399197   45.236279
H   20.566635   17.376925    8.579011
H   12.301126   64.237534   10.357952
H   71.505188   14.833146   92.757950
H   45.985809   27.038933   66.632996
H   76.380531   65.516411   83.800636
H   37.378834   32.375896   28.674261
H   56.245983   96.648499   76.188492
H   68.622856   22.262531   39.567741
H   28.469488   32.621532   75.061539
H   43.531582   57.769775   54.720081
H   11.110837   52.325958   65.988510
H   11.430788   22.721924   95.726021
H   73.836746    5.195370   37.243427
H   30.967545   69.288437    1.449888
H   93.720139   12.403019   88.439590
H    4.050301   85.997704   67.685753
H   16.900885   65.270729   10.386719
H   99.978691   43.966049    2.040267
H   50.904625   37.242218   60.104874
H   67.459641   72.849716    4.806401
H   94.545624   26.800491   89.788986
H   82.576286   98.765404   25.119843
H   51.486107   42.463570   23.801237
H   37.203751   51.020931    7.015572
H   93.789406   36.158466   53.458584
H   77.699944   52.613720   73.000656
H   71.869286   24.571938   72.082710
H   63.034454   40.948326   52.519093
H   32.878479   54.331200    1.472115
H   18.126917   87.035378   60.672215
H   63.824017   47.443413   65.628273
H   98.971436   12.223248   58.595730
H   27.483635   41.596272   95.898354
H   68.100632   28.818712   10.722011
H   28.565786   15.455317   87.653305
H   78.123016   15.883320   93.208557
H   37.759094   42.677647   21.232750
H   67.450020   53.139927   19.059948
H   93.493301    2.254897   10.324583
H   13.289042   30.553617   87.340256
H   50.552814   45.030838   76.495422
H   25.578629    9.310361   41.614929
H   58.632126   22.686863   52.195503
H   46.341606   41.191269   35.828712
H   48.466679   13.568015   50.326054
H   75.369606   94.409813   29.408306
H   57.935226   95.446495   94.459679
H   58.235786   87.324043   27.194653
H   55.460213    4.226192   28.608847
H   29.056246   80.072617   36.059277
H   87.387383    4.757402   35.868423
H   93.176292   31.316999   28.430571
H   59.117050   20.693056   35.112133
H   54.465199   38.712299   18.913635
H    4.080887   90.874443   61.095818
H   52.839043   74.739143   30.115074
H    7.316955   17.284943   54.067207
H    2.852690   37.380497   34.748608
H   46.880230   75.543617   85.839218
