100
TIME:    0.885, STEP:   885
H   57.473305   40.862251   98.335770
H   76.652336   52.729412   33.825710
H   94.969971   37.574032   12.948517
H   81.625153   96.187157   91.653191
H   87.244186   43.694176   41.708687
H   14.292866    0.250449   66.390953
H    6.588346   21.096617   59.660923
H   50.327042   65.164627   26.936119
H   31.873009    1.204156   44.379814
H   50.654900   29.091419   42.346542
H   17.934479    1.852573   54.501190
H   22.061817   68.051201   29.933287
H   86.967422    8.163662   37.167183
H   11.261723    2.348609   24.588802
H   91.265862   90.972900    8.230524
H   65.940262   34.328533   59.577621
H   52.913857   40.523453   53.932182
H   20.056175   51.663162   68.865036
H   59.045158   15.479213    9.988855
H   68.693245   86.976959   76.564522
H   11.759384   68.113617   33.223976
H   47.207447   45.268036   43.899754
H   73.928001   87.424568    7.028488
H   36.815460   47.295933   41.347252
H   97.931999   15.987347   43.092293
H   42.601025    1.240229    6.222473
H   85.764420    5.687842   17.528013
H   57.866425   97.748001   96.026230
H   30.414642   29.385824   15.338017
H   34.927425   68.936111   53.743374
H   50.915134    1.405400   39.380211
H   21.636450   28.060867   17.335167
H   32.695660    3.731880   77.524742
H   15.495500   92.617836   34.466866
H   58.773766   92.020821   78.618454
H   49.502502   54.006359   17.599173
H   64.681084   72.125343   78.199898
H   27.412392   42.756168   84.893394
H   10.933348   61.615852   57.304611
H   79.835930   29.332235    7.663637
H   74.760834   86.547966   63.194485
H   52.082420   51.578323   44.378849
H   18.863859   68.807022   65.396431
H   22.845915   27.602716   67.263802
H   79.887856   96.974350   31.839743
H   66.648567   79.841118   86.788826
H   45.424854   73.482513   35.185493
H   56.286678    4.495344   23.336683
H   90.900566   59.152534    9.170291
H   44.451069   44.219662   21.767075
H   43.477100   84.202278   62.748173
H   48.141823   81.617905   15.962723
H   27.237543   27.140259   51.471260
H   56.195713   92.764061   70.869278
H   70.305847   36.088512    7.915920
H   94.673569   11.601852   62.499313
H   52.355850   64.010674   40.158379
H   60.159607   93.310066   90.759232
H   60.073891   76.161758   43.541698
H    0.618821   95.811111   38.438072
H   15.526951   37.414383   45.393608
H   67.500763   19.707901   55.312881
H   34.261673   46.803459   72.843605
H    3.810126   46.608665    3.110640
H   67.451241   90.160545   77.980003
H   46.978310   98.277199   98.513969
H   16.563406   78.958435    9.789761
H   19.232964   68.151169    8.510718
H    1.009154   86.195877    4.725842
H   48.313583   92.655907   99.869568
H   93.928764   35.186474   51.533237
H    0.995364   22.154259   21.416758
H   49.288422   74.529762   39.056225
H   10.711862   93.374832   50.610420
H    4.842088   29.902948   68.486870
H   46.582127   64.294334   36.380497
H   47.307552   49.840202    6.693861
H   73.559235   92.852654   63.317043
H    3.971602   50.910007   27.556522
H   56.123489   60.756798   44.677582
H   28.200657   38.437389   32.882427
H    7.724949   50.007278   12.774508
H   73.792366   22.028372   14.191629
H   11.049147   87.892189   82.595100
H    9.236977   93.526138   61.961632
H   30.923252   41.562382    3.240247
H   26.261877   39.006218   65.743301
H   70.201920   34.438591   86.541557
H   74.048775   44.896400   20.959568
H   88.090866   72.868378   55.851009
H   60.240391   21.219641   52.151318
H   43.767994   62.066475   50.384979
H   42.066780   54.147087   87.380638
H   32.766434   66.915901   86.489449
H   41.291584   70.457428   36.422020
H   67.018951   60.783257   21.737755
H   92.355515   18.468534   86.291733
H   10.114572   23.772919   41.876091
H   66.552696   40.665180   70.918373
H   94.202927   55.972660   12.447643
