200
TIME:    0.351, STEP:   351
H   12.882000   62.106609   17.237608
H   28.953632   34.498638   94.403336
H   15.811157   73.996605   50.815544
H   21.584158   78.271156   41.597073
H   14.031628   86.542526   52.062588
H   86.007568   49.802280   62.263828
H    4.967414   55.225372   51.799854
H    5.376075   93.679626   21.132301
H   91.936325   85.842140   45.011574
H    6.953792   73.344048   91.694176
H   16.062674   96.965401   96.469376
H   31.236801   44.985592   18.031212
H   13.898532   90.691734   56.742332
H   99.157013   53.675251   47.614590
H   14.262745   72.799072   42.705479
H   26.064949   21.392883   51.928501
H   89.429169   12.917177   10.042826
H   33.926319   88.503120   41.544212
H   68.718590   25.683340   44.117855
H   90.409393   78.180321   33.167812
H   59.417191   82.299278   20.755062
H   87.557884   53.057152   66.297188
H   91.681274   61.734398   46.472824
H   10.959334   89.071182   91.238022
H    8.071093   17.168283   41.449574
H   18.569208   67.262337    3.290480
H    1.045230   61.024006   53.544830
H   97.057648   74.708420    1.023340
H   15.743699   53.155830   37.688396
H   88.033455   23.737892   94.786224
H   13.216573   56.086674   16.330523
H   29.907555   66.107895   96.335953
H   24.441284   11.374009   74.534981
H   92.752861   63.699020   40.230461
H   42.661671   85.214401   33.374767
H   29.435413   47.391102   80.749313
H   89.450363   72.033226   86.788246
H   27.424448   47.626602   10.176668
H   48.962120   42.425865   46.898968
H   89.018242   39.232029   59.360443
H   80.537338    0.038641    5.208611
H   18.864244   40.779285   36.539806
H   74.703262   85.232025   54.449963
H   37.033981   68.625023   22.718216
H   32.569500   79.681755   48.369576
H   39.497753   10.949742   43.895081
H   82.065903   20.774052   98.612892
H   87.413483   65.548912   43.657242
H   91.373116   24.539867   61.246361
H   58.145187   18.302423    1.016305
H   75.567719   69.091171   23.469704
H   16.894911   37.608501   65.928185
H   55.170002   91.245651    9.380385
H   20.754576   84.526123   83.346924
H   72.500504   73.916328   87.183502
H    3.882713   69.615540   82.282959
H    5.113704   17.165504   48.463902
H   68.621384   61.159786    3.300027
H   25.838951   76.621719    9.811146
H   40.536026   95.365883   64.942284
H   50.060024   13.210766   38.993443
H   91.931053   16.687834   49.916855
H   74.505333   27.505913   81.140091
H   26.815462   65.310699    6.145795
H   73.132713   77.733841   22.468575
H   34.385555   20.873562   34.858505
H   82.028908   20.820623   88.128426
H   96.719826   91.702293   89.469162
H   20.470772    7.353253   60.574860
H   44.598007   43.564644   50.976665
H   58.416470   78.511971   76.250443
H   29.020868   20.904179   43.987831
H   81.016739   27.582088   95.778877
H   11.481573    6.524848   63.803833
H   80.496628    2.668411   62.393501
H   56.119415   15.157768   62.152134
H   94.958420   34.082462   70.575493
H   22.443933    7.991188   44.171898
H   12.374458   34.638779   32.480015
H   66.603539   90.047890   88.997528
H   48.079197   28.226036   99.485886
H   31.517141   66.594193   84.425743
H   10.566648   14.883878   87.031998
H   21.054363   65.489250   97.469330
H   34.955486    0.497618   54.636524
H   27.794466   81.890610   25.472157
H   40.830112    3.015409    2.025794
H   74.408409   14.413095   15.628867
H   69.083115   72.326744   77.570244
H   22.888165   91.022476   53.644329
H   36.589733   35.851021   80.260765
H   83.282242   89.509354    0.789858
H   52.532684   15.610224   92.568489
H   55.050430   90.445770   72.152527
H   27.937544   55.424713   72.562805
H   64.675301   30.191029   23.842678
H   80.811317   10.439920    3.109718
H    3.843235   30.163557   49.644527
H   34.502724   68.666100   53.274616
H   69.134430   99.731201   27.277506
H   14.818596   83.495422   74.166634
H   94.699913   78.335899   65.252319
H   25.480322   33.113480   32.054077
H   27.209656   68.144424   94.570290
H   25.191597   26.014011   28.686279
H   91.817474   21.338352   38.693996
H   70.916473   31.475050   55.742645
H   64.097420   38.536213   14.449454
H   75.617462   38.688519    4.500004
H    7.932449   26.512747    6.080527
H   48.654957   95.102203    0.873947
H   90.450996   66.136658   91.775528
H   55.166157   81.562737   91.520966
H   62.848167   17.004324   72.091583
H   60.146080   86.590744   22.880690
H    9.508518    2.550028   83.941887
H   28.011196   10.005701   85.474106
H   40.207951   32.460014   31.759727
H   23.077812   61.881023   78.053680
H   73.711929   48.890255   53.483494
H   41.713081   22.497051   83.882553
H   13.499664   24.850521   51.453243
H   34.912483   17.141109   27.321964
H    2.441888   63.324245   13.004357
H   73.594978    6.203780   89.141983
H   51.788982   65.389511   23.388187
H   92.627556   49.708206   66.767944
H   73.000717   88.440544   35.940052
H   93.833710   48.465729   82.360687
H   73.125313   23.623232   68.392654
H   53.089706   81.222382    7.653278
H   77.439438   87.152298   11.944638
H   92.075294   87.995178   98.200844
H   95.477776   15.848945   51.073505
H    9.909592   99.363083   51.316231
H   59.401680    1.484392   82.046310
H   69.076485   86.847374   60.864441
H   92.165138   60.755165   81.444519
H   49.214584   45.885933   71.523834
H   43.508072    3.766233   92.373215
H   56.112949   59.804432   18.495529
H   52.128326   44.383457   48.834480
H   51.437244   58.804047   95.640266
H   52.626823   22.509607   79.963814
H   45.519459   66.085762   52.698200
H   50.007191   63.888371   24.529987
H   47.356529   96.291695   46.487114
H   39.621521   69.286850   68.188133
H   68.152679   60.157894   96.840996
H   13.000279   89.886658   85.843071
H   72.307716   63.195065   50.506226
H   38.459934    4.038395   44.673840
H   81.332298   27.688114   99.567833
H   12.844165    3.690585   73.209534
H   18.014107   56.810455   62.761547
H   66.797241   43.804134   57.475933
H   60.473156   64.212212   82.070114
H   47.624195   34.878944   12.324636
H    7.301572    1.316087   98.488510
H   62.435211   52.414795   82.500793
H   55.046284   79.899841   80.464569
H   38.392513   22.481070   34.582363
H   69.997353   29.730448   37.185898
H   15.349042   23.440506   66.449585
H   57.891373   25.854784   10.915198
H   13.826123   60.907455   61.695045
H   72.988464   95.771614   53.398415
H   23.729179   35.982830   52.602711
H   95.581223   27.809235   36.594830
H   31.538464    9.622061   89.153381
H   77.244446    6.953866   35.966759
H   42.328346   61.324306   57.798977
H   39.817623   72.684708   87.300797
H   69.859177   71.883438   76.815048
H   66.278778   94.201538   94.012207
H    4.334441   48.260429   23.393238
H   34.277443   56.388630   91.551315
H    2.713765    9.306717   66.299545
H   72.762886   18.799173   67.836601
H   81.020340   55.645790   87.950851
H   79.391273   89.167130   39.138485
H   21.466560   30.241543   73.668404
H   60.524887   90.050583    8.266944
H   53.898006   25.425850   81.273857
H   86.958397   83.519966   77.939529
H    1.584182   37.160400   84.509743
H   35.217072    2.623221    1.724604
H   85.088356   71.926338   29.410471
H    3.403898   61.668396   67.812012
H   51.632069   57.669498   67.105423
H   53.122902   27.351925   78.508797
H   46.742962   87.945724   23.210550
H    6.566059   20.164755   60.348919
H   33.164249   67.961067   35.550270
H   81.085419   49.297379   21.453192
H   75.599136   10.655818   28.045618
H   10.199109   88.586098    7.213300
H   25.683578   95.200104   43.836285
H   10.433100   11.922482   73.052757
H    6.850022   31.232203   96.206657
