100
TIME:    9.684, STEP:  9684
H   62.432526   33.952461   90.280045
H   33.026932   29.625797   88.712151
H   46.229923   70.609734    9.664345
H   83.102036   33.670647    9.348910
H    8.422304   48.972290    3.133619
H   77.849121   90.716698   37.784714
H   45.431103   15.247622   47.754589
H   58.742996   26.391132   19.040581
H   15.576668   55.214859   90.514061
H   10.252920   55.432896   86.888496
H   99.472870   55.897797    6.935362
H   86.229652    9.099365    3.611792
H   26.233231   75.828423   62.737572
H   75.587906   75.227089   94.196114
H   98.227852    5.010201   85.196556
H   12.149940   64.730881   29.184502
H   45.377388   22.492493   54.961075
H    8.153731   23.615288   63.829216
H   96.100342   84.608887   73.554977
H   31.611759    0.163268   75.664360
H   89.613937   92.144966   94.402496
H   90.794861   56.939636   94.596252
H   56.446846   15.870417   55.280197
H   19.274284   52.676971   87.856277
H   83.229477   18.170502    8.054543
H    1.943953   40.619186   79.574745
H   27.016472   39.924610   92.110031
H   15.434139    8.456090   86.873802
H   21.740566   27.700014   99.404922
H   72.320732   51.160568   53.238625
H   97.181007   90.438919   43.211838
H   77.211044   84.952850    2.767701
H   52.486221   59.954773   70.208153
H   87.273758   86.241936   63.779823
H   39.947853   26.455269   14.234704
H   14.450983   43.926571   88.982063
H    8.620950   49.886482   71.526688
H   63.732037   81.733376    5.815010
H   36.307484   70.419273    5.861183
H   51.068417    5.598609   99.951187
H   73.418777   88.464417   70.495323
H   84.098869   79.580643   74.341545
H   94.627655   21.580898    0.958902
H   60.995647   75.194862   27.583508
H   16.633032   49.812168   84.795471
H   53.126572   47.618298   22.503668
H   17.403255   51.490307   18.428213
H   56.778683   95.112061   67.768219
H   48.101471   30.421406   58.177109
H   29.050215   78.137199    6.427117
H   45.203907   34.894073   51.876907
H   75.771317   65.136734   38.341927
H    9.738188   78.159851   40.440994
H   52.429291   49.202904   59.144234
H   69.740334    7.263866   82.704132
H    5.657169    2.347095   62.960571
H   10.176315   10.118698   77.016396
H    4.965642   62.352821   64.117577
H   54.036785   47.954971   68.045525
H   19.975254   72.133362   88.174599
H   70.578552   28.220770   59.361568
H   55.213829   37.804764   57.186584
H   31.515396   46.477211   69.415421
H    8.022404   94.515839   64.222397
H   16.696754   87.397804   97.396980
H    6.446512   60.853264   18.778513
H   10.602818   83.162537   34.606396
H   11.425731   71.375618   29.153809
H   39.551765   53.955856   52.870228
H   26.701981   35.046322   81.304016
H   14.513521   36.497776   45.990364
H   75.812691   30.054100   65.877777
H   75.577362   39.299702   13.450222
H   17.028606   36.519955   27.762762
H   28.958166   42.574421   35.548893
H   54.595894   28.225945   44.318657
H   46.296822   87.625290   62.493454
H   86.943962   17.516045   49.262070
H   25.896734   25.073757   25.731226
H   24.612782   81.485603   86.636055
H    0.396029   29.467783   58.782921
H   67.974358    7.279961   76.839790
H   30.407393   69.069008   52.198917
H   16.393242   40.840408   78.933311
H   80.801468   43.127167    8.999059
H   28.413418   64.765831   14.269717
H   13.927385   99.246147   85.313606
H   11.773394   30.154123   95.173615
H   56.655521   54.982445   48.988167
H   10.142819   10.849045   70.394348
H   20.332510   96.338699   37.970482
H   94.816833   23.808657   18.046022
H    6.216638   18.082418   67.883171
H   80.816872    0.509775   83.412514
H   89.159348   82.295998   38.612740
H   93.780258   13.321928   67.257690
H   93.932274   23.422977   80.252182
H   19.584948   65.623108   84.468956
H   47.389519   78.620049   33.901211
H   40.721489   30.128372   64.850464
