100
TIME:    3.982, STEP:  3982
H   48.035553   56.851624   95.500381
H   90.502876   20.641783   29.183107
H   48.201683   60.384941   76.600746
H   82.144974   68.591728   21.895658
H   59.504639   91.932365   57.736008
H   66.276375   96.894096   73.097435
H   44.273281   30.221294    1.850532
H    6.908951   33.095470   42.580273
H   55.742775    3.440259   49.434887
H   66.023033   73.558983   63.623093
H   29.859085   26.466724   56.182423
H    3.856997   23.287500    9.486216
H   89.967545   20.790966   29.350769
H   57.915520   92.802223   60.273174
H   28.937859   14.339205   59.362827
H   41.417419   63.448784    2.500027
H    3.898329   45.348423   35.885521
H   86.230919    1.055832   61.494259
H    7.289381   45.404152   73.148468
H   85.236382   21.254015   87.445732
H   27.979187   59.797527   49.163750
H   44.138565   49.370148   80.174210
H   32.578590   62.236870   18.420322
H   49.070564   84.439514   11.334558
H   87.165436   70.367752   65.947792
H   28.397459    8.960158   15.937931
H   18.706160   76.951126   78.979286
H   96.552704   42.306000   98.393791
H   97.755112   10.370383   68.941017
H   53.680496   92.284904   99.946655
H   72.773445   79.128822   94.335777
H   17.182936   42.492264   30.630348
H   50.844746   77.140404   56.526962
H   46.350861    8.796209    3.996510
H   81.789047   57.911461   67.203018
H   18.782602   97.292145    6.941795
H   61.723740   58.706528   22.231192
H   99.410042   86.078224    3.441063
H   76.992004   94.657707   58.426781
H   88.133476   39.401787   51.330372
H   63.110214   92.816879   36.159893
H   73.741653   90.572083   89.879440
H   45.540134   87.378815   89.097832
H   25.081041   79.505890   70.072876
H   11.247023   74.780762   96.860779
H   26.714397   38.867359   99.336098
H   72.844040   41.393028   63.690971
H   56.452076   36.383270   14.961479
H   81.427475    2.661232   85.630707
H    9.391978   91.344276    5.158999
H   43.240818   85.206856   95.402390
H   98.651169   94.239227   12.650303
H   91.472603   45.097717   71.602119
H   84.478905   42.236717    7.531619
H   23.741104    7.560823   34.215290
H   98.548599    8.345358   57.070129
H   48.692471   74.647697   34.708870
H   29.547844    0.836531   10.987570
H    4.329466    7.017600    5.782406
H   96.248627   33.857998   50.353035
H   10.887978   93.391258    3.928572
H   57.585655   90.878189   15.180432
H   44.398624   35.559013   60.412773
H   16.475847   63.455597   19.027866
H   90.374687   42.808407   66.395409
H   56.724556   44.315742   81.630722
H   68.085159   86.030334   59.313396
H    5.301744   45.272476   56.565228
H   55.365944   63.665207   10.487621
H   11.062098   48.426346   93.348175
H   95.585167   24.464733   14.380829
H   45.632729   19.370514   48.165638
H   47.357956   21.340740   59.652504
H   42.552364   97.390190   66.557152
H   54.158428   34.315807    3.260176
H   19.793360   62.783020   27.991802
H   28.494402   81.413620   61.472782
H   19.061932   90.347298   34.350983
H   52.462845   41.822338   62.113937
H    4.240346   92.085411   77.868401
H   88.797409   70.477280   17.983786
H   40.099289   70.233047   53.805298
H   69.739632   73.724670    9.165783
H   24.105795   52.907539   99.723465
H   58.439102   99.807167   61.742172
H   59.649128   55.321571   18.305557
H   33.103508   13.829094   13.420702
H   20.052744   86.485817   54.331627
H   38.322372   72.460899   95.623177
H   14.275977   45.446342   66.561981
H   86.982422   88.448112   17.554361
H   72.924103   94.969292    9.401596
H   40.707344   46.997589   26.938700
H   32.103237   54.771469   95.304710
H   87.743355   93.045830    7.589629
H   22.818497   38.485847   61.773460
H   46.529694   96.199608    8.180342
H   21.482809   50.142029   92.318275
H   19.019920   54.015133   11.502075
H   86.548409   76.447456   14.141051
