100
TIME:    5.387, STEP:  5387
H   53.021400   28.006065   94.214066
H   51.699013   96.776413   17.772709
H   72.355972   61.466263   60.111935
H   82.380798   10.705540   44.883575
H   46.920181    4.549268   19.641357
H   44.485157   95.371956   12.238638
H   70.636253   25.093403   11.723496
H   96.478714   54.645069   13.576875
H   21.205193   68.355286   60.995766
H   27.627115   93.732704   18.638083
H   99.169418   83.000305   20.846729
H   50.235565   93.713295    9.476786
H    0.311353   35.828423   89.742363
H   88.349144   88.471626   67.194221
H   46.025383   88.839157   91.823853
H   84.923813   40.562393   85.872772
H   90.916542   38.278622   63.788208
H   16.264982   32.705387   12.784781
H   29.172787    4.342936   47.169231
H   47.380524   91.415321   83.104652
H   44.604500   19.924202   11.032253
H   78.837280   51.235306   60.525467
H   13.819505   50.810097   78.221558
H   18.527672    1.272432    6.987151
H   36.913361   58.944702   76.324074
H   21.989336   67.407059   83.848434
H   97.551529   18.545277    6.851767
H   78.001961    7.886635   44.839218
H   28.306435   37.842472    2.526508
H    7.555272   57.511497   11.639816
H   28.067047    5.118727   83.176643
H    5.895755    3.676979    0.562504
H   49.810833   74.343895   83.100456
H    5.714606   80.036369   44.804848
H   46.865570   51.704239   52.757866
H   40.920002    7.361389    2.490116
H   96.482697    7.251312   32.939739
H   41.337063   60.371830    2.588070
H   17.684467   64.043388   22.271822
H   55.797581    7.869997   61.873470
H   67.088409   41.023354   69.261086
H   47.467613   53.630333   55.881725
H   57.642223   95.804184   90.582771
H   35.365330    3.063400    7.448764
H   89.373314   19.349182   17.090624
H    8.586817   65.665604    5.046450
H   83.820602   17.801327   77.176094
H   56.527111   50.854324    1.894982
H   22.498207   86.298584   29.583858
H   38.859333   12.724936    6.891205
H   43.133625   49.563599   10.214618
H   66.930595   63.867069   20.415009
H   20.614040   53.244385   90.000481
H   51.939087   19.308136   69.529930
H   11.873821   30.695608   46.167309
H    0.305204    6.867122    9.240616
H   37.763939   34.107307   68.335960
H   24.928234   68.151970   74.798325
H   15.138512   66.383125   97.919868
H    3.533319   41.851284   10.391487
H   99.516266   28.051987   94.383507
H    7.722078   77.800644   51.610840
H   39.783848   39.684250   64.067688
H   12.954783   71.108414   80.883255
H   46.142456   30.593006   97.236488
H   70.414085   74.469383   64.704811
H   55.359558   34.605427   27.147152
H    8.248847   25.625952   23.732351
H   25.389120   62.710869   22.368927
H   39.525780   19.092243   90.389648
H   50.971443   28.869095   97.526039
H   29.784649   72.740860   51.033363
H   55.749039   51.841972   23.624939
H   11.621586    8.476208   83.076591
H   21.900633   36.320316    9.768917
H   53.012466   52.829781   33.453007
H   56.060329   59.637745   86.320122
H   85.071381   98.477211   11.942708
H   19.839886   37.695408   77.786842
H   35.338272   15.562943   56.826355
H   16.286852   85.012650    1.957804
H   45.520401   79.406357   36.318588
H   58.615845   97.209045   42.974697
H   20.767298   73.136276   71.397095
H   90.026527   11.924121   25.543053
H   27.309002    6.926799   15.873029
H   26.940283   11.674149   80.416428
H   42.666771   74.001099   39.722908
H   67.478867   94.233131   84.132088
H   90.055359   87.639450   16.790178
H   44.480919   64.312424   47.225384
H   76.882347    0.633615   36.170883
H   30.770433   89.156898   35.589558
H   67.899940   39.996166   90.036339
H   63.453423   67.195885   39.872807
H   38.865723   83.005219   89.203217
H   35.007256   76.829643   27.377991
H   26.638792   62.104767   69.829185
H   52.088776   60.071537   93.818748
H   73.817459   40.394756   78.794220
