100
TIME:    9.646, STEP:  9646
H   65.002350   37.437263   90.314835
H   34.076431   27.566517   86.316277
H   45.576740   67.875816   10.110455
H   83.095657   35.236198   11.431891
H    8.762812   45.926422    4.163912
H   78.438232   90.757866   34.021301
H   47.422543   12.681567   44.782940
H   61.729721   23.103764   22.529732
H   16.510780   58.868393   92.905876
H   11.290968   54.887272   85.400642
H    3.007553   54.368774   10.595720
H   87.679817    7.194683    6.316608
H   28.656357   78.128624   66.513931
H   77.469467   75.344215   91.304482
H   97.766304    8.404549   87.024193
H   13.677948   68.054489   32.338928
H   48.433113   19.979202   51.501785
H    7.341094   25.464378   65.146561
H   95.508331   83.014923   71.551651
H   32.635456    0.970247   73.077141
H   91.868912   95.927803   95.434021
H   87.151764   56.889191   97.832306
H   56.954201   16.179354   56.367386
H   22.805038   52.222382   90.678329
H   84.588608   21.184189    7.774047
H    2.123212   41.739426   83.150581
H   30.293259   41.504368   91.356247
H   18.640463    6.682378   85.617882
H   20.914303   24.252466    1.201168
H   70.863609   52.101059   50.217690
H   95.685616   87.031235   46.218277
H   74.811691   86.002930    6.285518
H   49.809418   62.735077   66.784813
H   85.668198   89.724419   65.380745
H   40.893562   29.332405   11.922688
H   11.147814   40.949993   89.101509
H    4.976289   51.278084   68.532425
H   65.302757   82.428596    3.133532
H   37.911594   71.247276    9.543564
H   54.647442    9.156108   96.961563
H   76.015854   87.160370   69.600060
H   87.301292   79.431046   72.402580
H   94.300629   21.352879   98.214043
H   63.421963   74.557045   23.868221
H   19.932287   51.316257   81.545502
H   53.616821   46.893505   22.349287
H   17.106091   49.423489   18.063353
H   56.776363   94.720673   65.416992
H   46.990799   33.568455   59.693085
H   28.252653   77.558525    9.084112
H   44.992268   38.546738   51.805588
H   73.924545   68.662704   40.836372
H    8.949976   77.939514   42.648132
H   53.309189   49.823036   57.467354
H   72.765907    3.933662   82.381165
H    5.609840    2.387068   64.254181
H    7.767323   11.215237   73.402290
H    7.795159   65.941414   65.096336
H   51.039623   46.349121   70.962669
H   22.482746   69.212738   89.255409
H   68.181519   29.987959   62.324230
H   56.562523   38.158463   58.906082
H   28.932381   49.065300   72.018875
H    5.412970   94.308838   65.253922
H   15.188460   90.432655   93.858253
H    8.780827   62.742363   16.531656
H   13.651730   81.848633   32.771801
H   14.050712   69.202400   27.337189
H   37.657738   56.686295   55.253635
H   25.930222   33.137798   81.384613
H   15.720373   39.083546   46.446114
H   78.942055   31.315819   63.092350
H   78.054993   41.179234   14.424633
H   17.865017   38.924816   30.020491
H   27.127775   42.518467   32.667698
H   53.697441   25.790497   46.875435
H   42.845650   90.914108   61.819397
H   85.158653   20.000633   47.163361
H   24.074606   25.185375   25.307077
H   26.476223   83.555611   89.909798
H   99.652138   29.074656   56.511711
H   65.122734    7.033278   80.019020
H   28.003836   68.433510   48.579884
H   13.778916   37.588699   82.404198
H   82.651718   45.504196   12.682672
H   29.288097   63.370041   11.630820
H   11.389452    2.009090   83.501625
H   11.162321   33.194862   95.567322
H   55.866947   57.098259   49.298958
H   13.502595   12.412567   69.035797
H   18.777395   94.286667   37.167992
H   92.005219   20.950800   17.322100
H    3.780791   16.942175   64.944572
H   77.358742   98.220566   80.520882
H   89.816299   85.699623   37.739510
H   90.641617   14.822466   69.220428
H   96.948570   21.242367   82.437576
H   19.658297   63.742748   85.232018
H   49.199760   78.455956   37.084209
H   38.361275   31.103508   68.510956
