100
TIME:    0.494, STEP:   494
H   83.915443   76.719032   98.693741
H   87.528694   31.528603    9.161704
H   88.252045    9.444486   17.539497
H   81.559525   12.296995   13.084994
H   90.746338   12.353799   52.310600
H   20.356003    0.675992   27.667772
H   27.080387   94.694206   29.084215
H   81.058868   31.339230   62.837646
H   41.484535   38.797379   68.992714
H   61.340340   23.478729   27.034327
H   54.304352   86.119797   92.164970
H   36.986233   48.452278   57.765434
H   11.839499   31.819839   76.028862
H   30.621815    3.554152   94.832985
H   86.510811   25.897573   27.025812
H   81.661163   68.529305   92.033676
H   84.349693   14.666000   18.332521
H   11.700915   70.677399   82.420212
H   52.956665   99.075531   89.388947
H   79.277260   95.174500   49.889702
H   34.961884    7.037508   43.834839
H    9.715806   44.751961   77.192879
H   79.148415   90.604546   18.215981
H   73.143570   42.606510   70.387009
H   11.915667   46.996601   40.206497
H   44.393864   12.890126   42.870644
H   19.480219   21.941647    9.768988
H   90.858879   79.497437   83.103470
H   21.912827   93.911797   33.819916
H   19.935598   78.613266   22.659988
H   35.534306   66.342079   70.320854
H   96.948944   38.862648   53.532021
H    5.153919   32.338326   42.300377
H   98.974434   28.450439   50.939507
H   68.492683   21.577713   54.808556
H   15.506448   23.292009   18.944548
H   27.180370   86.444191   47.390514
H   43.571808   49.912609   57.300503
H   28.511440   69.962547   94.778763
H   16.664505   65.937508   76.901604
H    1.483219   73.130013   53.979710
H   87.223259   34.028786   26.008963
H   15.496058   66.462311   37.155342
H   47.813858   21.050352   29.032593
H   13.804993   12.401149   98.379944
H   71.642265   72.490776   85.255516
H   41.296253   52.390400   31.844427
H   56.265797    0.469525   99.143890
H   79.469353   91.536545   24.767721
H   36.250546   38.268391   49.113091
H   43.506931   21.951193   58.625538
H   29.139742   17.899101   41.632240
H   19.126513   24.873108   74.180214
H   65.248993   99.141914   53.615070
H    1.431555    1.811035    4.597975
H   94.184341   12.012774   75.809875
H   27.569328   75.292732    2.970882
H   89.274597   30.234734    0.830224
H   29.237656   59.641388   73.559616
H   26.419952   65.759430   49.559044
H   90.862259   55.596336   75.878998
H   81.378113   23.347275   73.004089
H    7.740124   73.466347   99.667580
H   76.962044   44.481720   13.727468
H   51.930870   21.388878   41.566528
H   70.998177   17.714893   75.394997
H   47.934349   65.439056   90.912094
H   46.241890   45.789902   89.818657
H   81.523460   14.290627   29.249508
H   40.393471   72.991356    0.691957
H    6.344988   61.792683   56.222660
H   33.234745   35.130714   92.789803
H   74.781937   93.872139   49.082401
H   19.317627   18.118067   73.848717
H   85.989426   29.346601   38.846851
H   37.337521   39.233406   62.688396
H   11.806605   83.728142   99.775330
H   55.189346   18.418926   41.722431
H   85.231255   52.055515   23.196732
H   75.298813   82.050575   78.362671
H   20.549023   34.392315    9.514101
H   78.388802   47.453751   45.471390
H   49.052395   15.502799   76.950958
H   84.152557   54.433811   18.308693
H   28.276304   17.983276   99.864815
H   39.923244   27.199287   76.088066
H    0.147851   67.435097   47.098965
H   63.907593   65.743172   90.604530
H   65.934761   66.667015   24.158936
H   22.659912   88.959183   41.872234
H   44.239079    0.106929   43.894115
H   14.837923   32.659142   42.936195
H   16.979858   42.432480   57.132072
H   94.974281   43.197693   60.125309
H   48.051273    5.479363   27.437702
H   34.723984   76.223747   41.933296
H   23.390879   96.030205    8.778484
H    8.678958   20.443787   48.131638
H   85.179131   38.979733    3.672440
H   69.920547   66.016136   50.106918
