100
TIME:    0.387, STEP:   387
H   91.151527   86.531502   98.791702
H   90.505089   25.727245    2.412353
H   86.413635    1.746569   18.795853
H   81.541565   16.705667   18.950129
H   91.704727    3.777277   55.211891
H   22.015224    0.792449   17.071203
H   32.688221   87.469551   20.716677
H   89.468857   22.082691   72.661644
H   44.114799   49.084961   75.727562
H   64.264488   21.942776   22.844027
H   64.257233   81.814392    2.472042
H   41.070408   43.088890   65.381935
H   18.645653   38.293457   86.664207
H   35.919895    3.884057   86.690758
H   85.209557   35.454788   32.169209
H   85.963303   77.887886    0.915503
H   92.952339    7.589926    8.590510
H    9.414536   75.880783   86.129684
H   51.290504   94.587265   83.751266
H   82.173653   97.417816   42.589943
H   41.311417   17.689987   46.738579
H   99.455788   44.610733   86.303291
H   80.577019   91.474770   21.277683
H   83.085022   41.323215   78.333313
H   15.742285   55.482510   39.416275
H   44.884487   16.078163   52.899445
H   28.706961   26.389503    7.645690
H   99.887657   74.503036   79.567062
H   19.586243   84.203819   38.877991
H   15.833047   81.261490   14.154079
H   31.325228   56.746758   78.787987
H   90.192871   41.818634   63.437553
H   97.617004   40.167076   32.660973
H   94.453514   38.256378   55.447365
H   71.152336   29.666061   48.293304
H    6.202970   14.886511   19.312719
H   16.917686   90.362648   38.959301
H   47.993950   51.871021   49.750126
H   33.321865   72.246681    5.034025
H   26.742695   75.954063   68.483452
H    8.795223   69.458092   51.458019
H   96.839806   29.226229   20.981909
H   14.574609   65.820663   29.426865
H   54.646667   19.257250   18.570721
H   23.086430   16.622704   89.223816
H   73.008827   70.479301   84.835915
H   40.166431   46.618023   30.930120
H   56.260082   99.367615   92.523331
H   76.341118    0.398755   29.035982
H   34.006413   36.639782   56.596527
H   43.515095   32.281624   57.497349
H   23.940031   27.827900   48.656891
H   16.906870   24.252686   80.394234
H   67.725784    0.887584   48.893330
H    9.949928   92.431137    3.690012
H   94.050461   12.125225   79.452408
H   20.786316   78.380150   92.794273
H   97.242126   40.339455    3.586411
H   20.799095   55.120468   81.773682
H   33.480522   57.534927   52.602379
H   84.112717   60.571960   84.222046
H   85.175751   24.343216   77.845016
H    0.482209   80.762840    7.008277
H   69.614937   43.899666   16.632841
H   47.683426   29.934788   31.601419
H   77.571388   23.034199   69.068321
H   56.519035   61.739880   85.746262
H   53.633080   39.670578   84.703438
H   76.191093   21.978966   35.960682
H   38.226074   67.610008    0.916962
H    9.742975   69.073097   57.505955
H   42.056988   38.681816   84.956154
H   81.758423   99.165321   51.826138
H   21.672783   24.889242   80.208046
H   80.830124   29.194353   30.735580
H   34.807667   32.375290   69.888412
H    2.091627   93.001823   97.881409
H   50.162292   25.415413   35.812908
H   80.102974   52.368504   22.003643
H   80.546280   87.877647   87.580841
H   18.455097   33.285351    3.119064
H   70.360863   46.754959   54.419350
H   42.282444   13.716840   66.759705
H   76.792389   45.277683   28.081978
H   33.486511   24.676491   10.237109
H   42.386158   23.268993   68.657692
H   93.001564   75.214867   41.996807
H   62.185104   74.309898   91.716393
H   63.714302   72.624702   25.034466
H   32.120125   93.362549   38.046841
H   39.860203   94.328842   41.634472
H    6.920817   24.611986   40.897781
H   10.114803   39.226692   48.854332
H   84.632820   36.706932   52.911266
H   49.901112   15.064045   24.979279
H   25.886230   80.449150   47.459953
H   31.883726   89.889656   14.932299
H    8.286092   19.532745   49.843513
H   90.276390   38.518497   12.635143
H   63.275494   68.763954   60.412460
