100
TIME:    9.313, STEP:  9313
H   87.522125   67.975136   90.619705
H   43.273361    9.520947   65.320854
H   39.852795   43.918068   14.019785
H   83.039764   48.955376   29.684908
H   11.746733   19.235001   13.192528
H   83.600708   91.118629    1.043102
H   64.873970   90.195961   18.741909
H   87.902863   94.295242   53.105713
H   24.696556   90.884888   13.866667
H   20.387545   50.105885   72.362343
H   33.982452   40.969711   42.672340
H    0.387925   90.503319   30.019051
H   49.890594   98.285652   99.607635
H   93.957886   76.370613   65.964653
H   93.721687   38.149757    3.039635
H   27.068119   97.179794   59.980530
H   75.210915   97.954231   21.187483
H    0.219760   41.668251   76.690994
H   90.320450   69.046768   54.005367
H   41.606274    8.041964   50.404930
H   11.629948   29.078825    4.473213
H   55.226727   56.447128   26.190277
H   61.400230   18.886351   65.894592
H   53.746487   48.238739   15.409510
H   96.498886   47.593605    5.316028
H    3.694089   51.556259   14.486853
H   59.009453   55.348034   84.750717
H   46.737434   91.139069   74.612053
H   13.673423   94.040489   16.941517
H   58.094612   60.342728   23.745155
H   82.581261   57.169743   72.564178
H   53.785786   95.204941   37.112999
H   26.352165   87.099319   36.785545
H   71.598419   20.241699   79.409874
H   49.180962   54.545204   91.662827
H   82.200836   14.866605   90.148232
H   73.036255   63.472908   42.293232
H   79.067665   88.520927   79.633385
H   51.968670   78.503197   41.813232
H   86.012787   40.331528   70.763016
H   98.774445   75.732803   61.754726
H   15.365112   78.124100   55.404873
H   91.434845   19.354706   74.159752
H   84.681679   68.967751   91.309883
H   48.821693   64.461342   53.051960
H   57.912956   40.542034   20.996424
H   14.502353   31.311682   14.865797
H   56.756039   91.290878   44.812824
H   37.257805   61.146542   72.976105
H   21.263494   72.487511   32.367542
H   43.137638   70.555092   51.180603
H   57.740993   99.561340   62.695595
H    2.042796   76.008667   61.989632
H   61.019875   55.257355   42.772591
H   99.279488   74.752213   79.550949
H    5.195089    2.737351   75.590286
H   86.655762   20.824059   41.731316
H   32.590271   97.388817   73.673363
H   24.775372   32.276802   96.526070
H   44.456295   43.616825   98.726723
H   47.173901   45.473011   88.284126
H   68.381340   41.257980   73.972633
H    6.319773   71.780540   94.850098
H   82.547302   92.494858   74.293335
H    1.971025   17.029079   62.847828
H   29.236599   79.296837   96.841606
H   40.369431   70.334686   16.693748
H   37.053253   50.158150   11.417862
H   21.060076   80.613556   76.138336
H   19.167175   16.413103   82.090897
H   26.295589   61.743053   50.439919
H    6.364743   42.372459   38.684917
H   99.766861   57.649868   22.963551
H   25.194614   59.998997   49.806465
H   11.087770   42.028133    7.419548
H   45.824158    4.448283   69.281479
H   12.601741   19.736210   55.912529
H   69.513710   41.773476   28.772041
H    8.106694   26.163502   21.590197
H   42.806694    1.695497   18.597832
H   93.132988   25.629618   36.608742
H   40.135933    4.871554    7.878677
H    6.941072   62.864536   16.865719
H   90.868660    9.092592   12.819235
H   98.865753   66.334763   44.962692
H   36.953053   51.137108   88.506088
H   89.149055   26.221199   67.622948
H    5.807266   59.840553   99.017441
H   48.956547   75.639473   52.022469
H   42.944729   26.113960   57.132065
H    5.149174   76.304382   30.135643
H   67.366592   95.906418   10.978250
H   82.434830    6.950041   39.193169
H   47.054604   78.160080   55.181057
H   95.573273   15.527378   30.087576
H   63.137207   27.971338   86.420212
H   23.380108    2.132871    1.588587
H   20.301065   47.267033   91.918846
H   65.063194   77.017982   64.977242
H   17.678345   39.647640    0.588465
