100
TIME:    4.071, STEP:  4071
H   42.016754   48.689850   95.418900
H   88.044838   25.464899   34.795113
H   49.731506   66.788063   75.556419
H   82.159912   64.925041   17.017267
H   58.707474   99.066109   55.322784
H   64.896614   96.797676   81.911064
H   39.609119   36.231266    8.810510
H   99.913719   40.794834   34.408314
H   53.554985   94.883240   43.832325
H   63.590797   74.836891   67.107880
H   21.580521   30.047855   47.609844
H    0.459913   27.748636    3.151275
H   84.288254   15.408672   20.507156
H   53.508705   92.527901   67.046051
H   30.020550    6.389472   55.084347
H   37.839005   55.664543   95.112244
H   96.741432   51.234814   43.987541
H   88.132164   96.727760   58.408131
H    8.675549   49.138062   77.837753
H   82.838097   19.363974   93.505272
H   22.697800   50.937046   46.748489
H   52.671082   49.488297   72.595032
H   31.390312   61.513039   15.873681
H   40.801506   85.506927    4.724464
H   83.982208   63.309990   66.605080
H   27.989031    6.308376    7.596044
H   11.031580   73.251846   80.744728
H   89.042786   46.460220    1.335518
H   99.690308   18.445023   64.733833
H   57.093231   90.082176    7.021732
H   76.275810   87.109978   87.294380
H   22.802473   40.033546   22.391167
H   57.114101   70.628639   64.544785
H   50.111252    0.639975    0.247270
H   79.576813   51.183769   72.622925
H   26.521688    4.283523    6.634625
H   70.260147   55.447250   29.244070
H   95.731133   84.449944    9.721392
H   73.235687   92.718437   49.801918
H   79.750343   31.069618   58.333065
H   57.027588   95.871094   38.256695
H   65.742844   94.566055   94.060822
H   46.306744   87.912521   95.526756
H   19.398016   80.997009   78.775146
H    3.526949   71.268890    4.476821
H   25.566181   40.564899   99.697334
H   73.539352   46.233055   64.545418
H   56.456829   37.299942   20.468300
H   84.029465   95.290070   82.080811
H   11.258594   92.698235   98.934303
H   43.234028   76.614586   96.340790
H    2.976271   85.981033    6.807387
H   93.318169   45.613770   66.433449
H   82.417412   40.784302   11.458709
H   16.654892   15.360682   34.972393
H   98.659958    8.251654   54.040359
H   54.334415   72.079659   43.173485
H   22.920647   92.431648    8.695042
H   11.348455   10.778183   98.949852
H   90.375137   40.699085   47.821663
H   16.502268   89.251976   96.989326
H   54.426872   90.049789   11.153358
H   50.441189   29.485752   54.309776
H   22.587332   63.939735   16.611248
H   93.906929   35.699787   74.683479
H   51.257118   39.891273   86.893097
H   60.944626   89.107635   63.610210
H   99.153786   50.362381   60.819942
H   59.801956   57.270233    4.905600
H   12.865225   52.903099   93.160767
H   92.759102   18.408928   13.313076
H   38.294601   16.416794   54.682156
H   41.555084   16.938679   57.370331
H   40.592724   91.758430   61.268974
H   58.449131   34.442783   10.007159
H   21.897631   68.486900   22.003220
H   36.575226   73.699997   63.046741
H   23.243313   84.528130   39.266380
H   56.730461   41.560917   63.107338
H   99.875549   87.238594   70.200951
H   90.538406   71.398026   23.302858
H   46.777412   70.814285   46.363281
H   75.370033   75.210358   17.642620
H   30.228823   60.523384   91.594284
H   54.105621   94.240593   53.114594
H   57.600536   58.591034   24.485962
H   39.047615    7.358070   17.664656
H   21.485128   79.360222   53.406128
H   40.169296   67.505440   94.895271
H    6.407029   41.784409   69.743851
H   90.624664   93.254189   19.433878
H   79.509201    1.661810   11.097609
H   46.412437   49.668159   33.821209
H   40.705692   60.170326    1.305764
H   86.204704   85.074181    9.634656
H   30.169525   34.971260   57.176521
H   39.465210    1.307125    3.061749
H   21.809416   50.899811   90.893700
H   14.780144   54.398777    4.047157
H   92.076958   74.163246    5.567285
