100
TIME:    4.601, STEP:  4601
H    6.175900    0.086279   94.933670
H   73.407082   54.186440   68.214783
H   58.841690    4.918776   69.337395
H   82.248871   43.089714   87.966560
H   53.960312   41.547943   40.951904
H   56.676456   96.223488   34.398441
H   11.832458   72.020081   50.257198
H   58.256767   86.646973   85.745354
H   40.526573   43.926056   10.469893
H   49.106697   82.446907   87.859528
H   72.281219   51.373692   96.558136
H   80.233833   54.314949   65.424828
H   50.467758   83.358299   67.843506
H   27.266243   90.894295    7.377421
H   36.466637   59.047455   29.605946
H   16.527874    9.308805   51.118103
H   54.122108   86.291168   92.235527
H   99.457573   70.947456   40.031689
H   16.930515   71.372360    5.761948
H   68.556175    8.108671   29.590067
H   91.246864   98.172577   32.365479
H    3.482697   50.191879   27.460602
H   24.314049   57.202583    0.709249
H   91.558716   91.863434   65.363861
H   65.025909   21.276985   70.519264
H   25.572367   90.638290   57.760357
H   65.330544   51.220081   91.258034
H   44.322582   71.198837   18.855501
H   11.215407   66.530693   39.679817
H   77.416260   76.964806   49.154640
H   97.132591   34.636288   45.362465
H   56.267132   25.391747   73.326439
H   94.445168   31.850725   12.291371
H   72.504593   52.068512   77.918648
H   66.402832   11.119864    4.898170
H   72.594788   45.798954    4.962566
H   21.095110   36.038071   71.006149
H   73.823021   74.753441   47.120625
H   50.864231   81.169975   98.441574
H   29.830996   81.453316    0.031006
H   20.805832   14.056172   50.743267
H   18.109303   18.352884   18.960016
H   50.871944   91.090775   33.809166
H   85.554321   89.876709   30.596468
H   57.552181   50.358139   49.830830
H   18.728489   50.673847    1.851418
H   77.679977   75.055687   69.632240
H   56.485134   42.758774   53.261726
H   99.524460   51.394138   60.940392
H   22.374393    0.761511   61.863007
H   43.193592   25.446877    1.928671
H   28.731848   36.800785   72.015717
H    4.309907   48.686890   35.649998
H   70.141106   32.135086   34.844994
H   74.456390   61.809277   39.480984
H   99.323105    7.693917   35.997910
H   87.935394   56.786842   93.580742
H   83.455704   42.380226   95.043198
H   53.146935   33.173203   58.262787
H   55.399174   81.436417   32.747200
H   49.935516   64.602318   55.664764
H   35.616142   85.116623   87.173386
H   86.422478   93.318771   17.966087
H   58.983063   66.826767    2.220150
H   14.943242   93.369629   24.040388
H   18.698414   13.543392   18.230352
H   18.421701    7.432105   89.197983
H   62.543221   80.673050   86.157005
H   86.215256   19.187805   71.666901
H   23.602949   79.560059   92.044739
H   75.929726   82.347702    6.954631
H   94.593964   98.826523   93.485313
H    6.997209   90.722725   43.779861
H   28.922955   58.220287   29.777580
H   84.003670   35.198933   50.185268
H   34.428680    2.453146   86.340469
H   84.696121   27.761932   72.419762
H   48.143673   49.873005   68.537224
H   82.147240   40.004139   69.019661
H   73.883423   58.374737   24.540855
H    0.906443   76.881119   54.979702
H   86.543724   74.275589    2.044298
H    8.897173   84.064270   68.120712
H   66.690170    5.876302   43.186295
H   28.299208   61.090973    1.737148
H   45.401058   78.057945   61.290619
H   74.445107   68.822739   42.937027
H   30.015059   36.926903   47.894730
H   51.167831   37.995399   90.560555
H   59.549252   19.977386   88.692062
H   12.314597   21.872990   30.626505
H   18.725431   41.519020   21.196669
H   80.386589   65.571953   74.806931
H   91.931595   92.317261   37.040516
H   77.041954   37.600311   21.812424
H   73.945312   14.043335   29.801491
H   97.396965   31.722439   72.581146
H   23.754377   55.412445   82.410271
H   89.532196   56.683399   59.655983
H   24.997080   60.561672   54.511974
