100
TIME:    1.965, STEP:  1965
H   84.437653   41.820755   97.347000
H   46.610222   11.283564    1.951878
H   13.531416   15.274047    0.268372
H   81.806427   51.692528   32.454464
H   77.570724   30.260929   12.425819
H   97.545784   99.079262   73.346855
H   49.983936   94.023216   44.118416
H   65.441170   58.598469   27.774094
H    5.324547   97.366547   76.397987
H   21.141645   44.597847   84.637138
H   17.475510   45.308445   50.470295
H   80.842239   22.185732   53.057976
H   18.269081   42.822243   29.824188
H   57.786201   99.019173    6.776638
H    4.401195   94.505798   56.317947
H   22.516739   39.863106   69.929459
H   66.084396   11.945595   52.262230
H   43.135704   99.142509   31.423565
H   75.868294   60.789574   66.884720
H   39.577309   64.082138   50.118965
H   47.670746   60.596294    3.911251
H   50.764896   46.693512   51.939445
H   59.508446   78.640999   76.128967
H   36.471748   60.248814   61.137352
H   59.304070   30.331711   51.060127
H   37.648937   69.056000    4.993187
H   92.634544   60.796421   38.959591
H   66.739975   48.159267   31.724291
H   53.897919   27.371939   64.285637
H   76.340385   42.206375   39.600063
H   93.399269   98.256607   53.920010
H   89.828583   98.223427   17.354149
H    8.769094   24.713249   74.819672
H   61.127235   93.642319   88.969299
H   31.928661   10.381274   44.382561
H   43.404034   38.845081   13.884748
H   68.267273   32.574562   63.299625
H   82.773781   22.989017   61.104771
H   62.383224   38.561043   53.791801
H   78.111931   28.226263   92.636185
H    0.956230   23.607508   88.639084
H   55.018188    0.046630   95.119202
H   28.166533   75.283463   43.407135
H   53.880486   45.704437   72.860641
H   86.206184   54.360249   24.260683
H   52.736332    0.396154   91.149422
H   56.828663   31.741579   44.414009
H   56.344357   15.614882   90.161018
H   22.469625   69.707237   66.091629
H   67.101006   60.657955   46.229321
H   43.394703   79.935280   74.135498
H    0.628961   81.402084   45.063976
H   49.641411   33.402466   88.745628
H   31.188084   75.147484   18.526403
H   84.326553   30.767042   17.080336
H   96.024887   10.466827   25.733566
H   20.824709   32.847954   42.875359
H   79.739105   91.317322   62.941849
H   45.251656   21.794760   60.630295
H   29.349087   78.824661    7.720855
H   83.654160   87.190376   61.187740
H   29.169769    9.654110    6.443318
H    7.516966   73.154930   98.751389
H   77.973022   52.483604   73.792747
H   10.315532    3.902245   78.558273
H   80.632271   44.587013   62.371487
H   29.913366   16.298494   61.932629
H   44.629860   29.918198   60.140965
H   54.838951    8.593948   36.991379
H   70.192444   46.977470   97.595398
H   59.634941   61.702003   38.580357
H   11.944245   86.310440    0.489276
H   78.869766   21.109867   11.362438
H   86.945580   25.030100   86.422768
H   56.910812   31.439661   50.358501
H   72.114479   33.510399   63.708645
H   45.364464   56.234650   25.800928
H   24.299603   22.233725   22.959141
H   55.741844   47.745945   39.601509
H    3.157996    1.935340   51.634651
H   49.335606   49.610485   97.432594
H   88.759094   57.060501   22.465582
H   42.128391   40.054657   17.056278
H   85.344429   80.309181   83.948853
H   56.650436   25.972061   57.267715
H    6.064019   81.233177   78.238762
H   98.392616   60.481415   17.242231
H   87.587784   47.971848   75.314430
H   96.460884   84.764412   12.123344
H   92.605820   28.429787   94.462456
H    4.438485   79.535278   74.958939
H   23.677458   43.292141   70.962410
H   11.362392   86.510300   70.932846
H   37.152676   32.424046   59.307320
H   22.618248   73.717438   61.240135
H   56.222534   18.135672   65.954117
H    6.630191   80.447899   24.180527
H   14.079949   32.968475   24.595577
H   15.105040   45.320637   80.451706
H   61.274490   28.229996    8.427996
