200
TIME:    0.480, STEP:   480
H   16.845930   61.678486   19.443428
H   30.103415   36.381889   99.640221
H   13.107459   79.642914   57.169487
H   25.932564   79.778938   38.223755
H   12.662002   89.812012   50.207878
H   81.810974   46.301018   58.445656
H    6.836394   55.133842   54.296749
H    8.266892   99.250153   16.553349
H   97.175179   83.908203   41.864620
H    2.412781   71.537071   86.605904
H   20.558954   99.721138    0.545897
H   31.770233   48.428787   24.177736
H   17.064678   94.972969   51.455254
H   93.059944   54.219509   53.830746
H    8.034656   73.792122   42.388077
H   22.304844   16.077755   49.145699
H   95.497696   18.958885    3.779675
H   30.863113   94.704514   39.247601
H   73.010651   21.013103   46.016853
H   90.819801   76.408775   28.167133
H   60.965324   88.738846   14.845015
H   84.686012   57.987953   61.326035
H   87.818321   60.796463   43.377541
H   13.691697   90.247292   90.833519
H   13.678157   22.356451   36.846508
H   18.462423   72.987381   99.029915
H    3.543442   63.612431   58.731522
H    0.018097   80.029945    1.362779
H   21.176929   49.234810   36.933029
H   82.204086   27.193636   90.323898
H   13.048153   61.476109   16.488239
H   27.561733   69.131332   99.511940
H   21.324348   14.149799   76.110672
H   88.483437   63.839760   42.485245
H   36.471104   79.884018   32.393528
H   25.221596   44.449844   82.228554
H   93.152893   69.248947   87.756691
H   21.043686   50.963505    4.376579
H   44.187805   37.806561   49.766411
H   87.781113   38.701550   54.321381
H   80.575722   94.012436    9.490420
H   25.285112   38.074234   32.714745
H   72.380569   82.268623   59.240025
H   36.746597   74.890388   27.331861
H   36.977203   83.617538   53.024803
H   37.682411    7.592541   45.298046
H   84.496857   14.454033    1.441235
H   84.272926   65.546944   39.019730
H   96.361984   19.644497   61.339367
H   53.528835   18.884573   95.558899
H   72.499008   67.458397   18.357319
H   11.963718   39.828838   68.701637
H   58.649155   87.555687   11.066740
H   18.834663   87.248398   85.257240
H   67.040207   71.047409   83.011513
H    2.229025   66.437584   86.507111
H    4.745555   17.653664   47.080128
H   70.030746   64.158615    0.971730
H   23.116922   79.113693   12.931157
H   37.552448   94.641518   62.557587
H   49.642235   10.693941   35.224480
H   94.249504   16.993425   50.905739
H   78.059250   30.178240   76.787994
H   29.941010   65.494743    9.025993
H   75.206406   79.656952   27.743597
H   29.325201   25.885313   37.177261
H   77.210304   18.099579   90.793617
H   95.997429   91.995583   92.023140
H   25.059320    9.096503   58.942085
H   43.855434   45.813030   50.969776
H   58.359879   80.743134   79.701019
H   25.395351   17.513391   43.084835
H   85.110977   29.812267   91.459259
H   15.684196    3.689330   67.559486
H   82.067398    4.756621   56.327927
H   59.380043   10.603543   61.309174
H   94.413177   38.884827   68.750801
H   17.665928   10.340208   39.760750
H   13.355206   40.385967   29.622906
H   64.659760   89.328445   82.879791
H   53.554256   26.045805   97.570648
H   37.189510   64.274452   80.437798
H   10.063357   16.298899   83.257622
H   16.847681   69.707497    1.673731
H   30.361771    1.861742   50.980743
H   31.428841   77.377106   22.786789
H   46.611748    3.284216    2.321544
H   73.335640    9.611837   20.494465
H   73.031570   72.641403   78.035156
H   22.242043   96.804604   52.225124
H   31.182129   36.964634   79.686981
H   82.383675   90.641174    3.604592
H   58.660755   14.155342   88.894501
H   49.265842   85.811211   75.694633
H   31.206291   53.679741   77.935509
H   59.333107   33.075203   17.777349
H   82.561211    5.978058    8.665407
H    0.296947   32.168091   50.865910
H   31.579674   67.373856   53.731773
H   71.377403    1.827253   27.309000
H   20.574125   87.062134   80.241066
H   99.496864   80.287552   64.540749
H   28.154371   28.399012   33.856625
H   33.408287   68.382599   99.693008
H   25.020594   24.318741   32.868603
H   96.924446   15.022547   32.654503
H   77.027321   33.076824   55.142288
H   63.337193   43.489159    9.461201
H   78.895805   37.060173   10.737812
H   12.076388   24.714136    6.711886
H   50.352196   93.981209    0.964708
H   95.630798   69.380554   93.244926
H   52.925644   83.059692   88.715034
H   62.411186   14.223244   68.765015
H   55.841225   91.962463   18.357590
H    4.243953   98.776314   89.761414
H   22.707386   11.822150   86.977951
H   39.553463   38.809528   29.181145
H   27.976873   66.724228   71.678085
H   77.116249   51.464901   58.295700
H   43.059456   23.354282   79.655449
H    7.933568   21.794605   55.247795
H   38.022530   11.700399   31.148748
H    0.541270   58.682304    7.355226
H   69.734978    3.009779   84.875511
H   56.515072   68.918823   20.897444
H   89.421059   50.310532   61.785965
H   70.179039   89.452293   37.029552
H   95.421211   43.796230   79.420906
H   79.377884   23.011803   70.590355
H   58.297066   76.616364   12.583096
H   72.487968   88.431747   14.986775
H   91.654060   94.271370   99.160431
H   89.152374   19.156399   52.661175
H   16.282352   97.030548   45.388443
H   55.965866    1.318833   80.145836
H   69.290054   87.176094   67.286293
H   93.265465   56.727360   79.406258
H   52.586426   47.689957   71.493324
H   43.577950   97.579369   88.788788
H   62.499371   56.010864   22.662598
H   46.189713   48.303001   51.841679
H   47.290352   61.178410   91.289154
H   46.715767   17.840109   82.101479
H   51.583065   61.807480   56.916447
H   54.733772   66.110703   18.351723
H   50.407524   95.726768   45.563450
H   36.099098   64.484978   67.448021
H   71.601288   54.771904   95.558594
H   17.112389   91.295036   81.015610
H   67.760750   65.385880   49.532368
H   43.890213    0.469008   40.631271
H   87.325043   22.864590   95.039566
H   16.254257    6.651588   70.021736
H   23.129444   60.217236   65.095329
H   70.626732   44.123997   61.444687
H   61.823467   68.081070   83.597580
H   49.458237   32.809189   15.346844
H    1.397468    0.830022   93.704353
H   60.988941   47.151337   87.451279
H   56.313431   74.659019   77.034660
H   32.335796   21.812557   33.464813
H   75.550163   24.106037   37.132259
H   20.084219   27.230137   60.930511
H   56.656212   30.231977   12.182714
H   16.048676   56.802883   60.989872
H   70.767143   93.685127   54.765949
H   23.841869   41.852058   57.937031
H   97.334068   27.389723   36.290222
H   37.425407    8.648572   87.700714
H   74.780029    8.487975   35.955933
H   37.871925   56.532768   58.195114
H   42.310089   67.141739   83.671097
H   68.270615   68.797295   79.807510
H   60.283081   93.231125   87.946632
H    8.317220   48.957237   23.517000
H   32.952229   60.418404   96.947639
H    3.857058    9.429741   67.949051
H   69.463875   15.800332   66.327835
H   74.883904   57.029564   89.770622
H   77.036102   93.789879   36.139160
H   24.068518   30.399014   78.377762
H   54.585278   89.915436   10.821365
H   56.707382   25.664516   86.019630
H   88.626602   77.924835   77.408066
H    4.284743   38.248917   85.155373
H   39.708923    0.413554    4.582968
H   78.890900   77.390572   33.924324
H   99.668129   62.243656   69.286331
H   53.977890   56.967770   68.735245
H   59.285419   23.083977   77.587593
H   45.685448   91.451416   21.567442
H    9.431441   23.233711   63.303955
H   30.910570   73.109375   38.150013
H   76.658524   43.535427   21.031219
H   75.914078   10.972359   26.278255
H   11.056586   92.103600   11.567365
H   21.934546   92.636284   40.198219
H    8.712855   12.283434   67.283424
H    5.504570   26.861652   94.414444
