200
TIME:    0.169, STEP:   169
H    7.289454   62.710629   14.125521
H   27.331459   31.841627   87.014862
H   19.625841   66.030495   41.851067
H   15.449213   76.143898   46.356327
H   15.963968   81.929764   54.679310
H   91.928345   54.742046   67.651176
H    2.330585   55.354507   48.277103
H    1.297553   85.820435   27.592529
H   84.545074   88.570641   49.451462
H   13.360546   75.893425   98.872978
H    9.718911   93.077461   90.718002
H   30.484207   40.127750    9.359238
H    9.431567   84.651543   64.201622
H    7.759705   52.907383   38.844509
H   23.049801   71.398026   43.153286
H   31.369904   28.891747   55.854626
H   80.867371    4.393254   18.879210
H   38.248180   79.753868   44.784393
H   62.663128   32.272343   41.438648
H   89.830368   80.679710   40.223034
H   57.233002   73.213997   29.093304
H   91.609673   46.100517   73.310753
H   97.131332   63.057686   50.839813
H    7.109827   87.419708   91.807617
H    0.160433    9.848397   47.943821
H   18.719866   59.185555    9.301512
H   97.520958   57.372120   46.227173
H   92.880890   67.200531    0.544453
H    8.078210   58.687813   38.754108
H   96.257835   18.862347    1.081867
H   13.454188   48.482975   16.108007
H   33.217163   61.842270   91.855103
H   28.838821    7.457778   72.311913
H   98.776390   63.500458   37.049294
H   51.395649   92.734787   34.759151
H   35.380489   51.540783   78.662323
H   84.226639   75.961433   85.421913
H   36.426933   42.918724   18.359739
H   55.697975   48.943024   42.853428
H   90.763649   39.980457   66.469818
H   80.483185    8.540445   99.167549
H    9.805346   44.595715   41.936405
H   77.980240   89.412949   47.691891
H   37.439438   59.785847   16.209042
H   26.351196   74.128944   41.801735
H   42.058933   15.686259   41.915703
H   78.636185   29.690624   94.622200
H   91.844345   65.551689   50.200089
H   84.334557   31.446514   61.115143
H   64.658112   17.481096    8.716258
H   79.897217   71.394775   30.682526
H   23.852240   34.475933   62.014896
H   50.262173   96.454102    6.999333
H   23.463289   80.685394   80.651749
H   80.204178   77.963951   93.069565
H    6.215824   74.099167   76.323303
H    5.633109   16.476784   50.416203
H   66.632980   56.928875    6.584902
H   29.679333   73.105911    5.409270
H   44.745415   96.387856   68.306740
H   50.649464   16.761635   44.310894
H   88.661018   16.256689   48.522057
H   69.491280   23.735653   87.280258
H   22.405775   65.051041    2.082291
H   70.207039   75.020615   15.026273
H   41.524784   13.802773   31.587082
H   88.827248   24.659616   84.368233
H   97.739021   91.288506   85.865875
H   13.997060    4.893785   62.878464
H   45.645668   40.392502   50.986385
H   58.496311   75.364128   71.382187
H   34.135796   25.688080   45.261826
H   75.240372   24.435635    1.873116
H    5.552292   10.525292   58.505821
H   78.280502   99.722221   70.951134
H   51.519150   21.583260   63.341427
H   95.727676   27.307035   73.149864
H   29.184996    4.677067   50.395378
H   10.990768   26.530109   36.510975
H   69.345924   91.062920   97.628754
H   40.354694   31.302021    2.187508
H   23.514582   69.867004   90.052147
H   11.276718   12.887490   92.357086
H   26.989372   59.537926   91.537445
H   41.436543   98.573074   59.794292
H   22.666899   88.258499   29.260815
H   32.673077    2.636161    1.608555
H   75.921928   21.186829    8.764224
H   63.516247   71.874077   76.907944
H   23.799747   82.864746   55.646618
H   44.219120   34.279877   81.070290
H   84.549988   87.912521   96.818619
H   43.886879   17.662848   97.751945
H   63.211632   96.984451   67.155136
H   23.325823   57.886612   64.982712
H   72.212349   26.121883   32.399948
H   78.342476   16.734911   95.271400
H    8.846527   27.335428   47.921337
H   38.626717   70.489265   52.629635
H   65.969925   96.773590   27.233072
H    6.698516   78.463318   65.596504
H   87.932121   75.582405   66.256241
H   21.707632   39.764633   29.510607
H   18.464222   67.808395   87.342888
H   25.432858   28.405788   22.785637
H   84.612289   30.249023   47.214832
H   62.294971   29.215185   56.589661
H   65.169380   31.548336   21.487011
H   70.992203   40.985874   95.699379
H    2.085974   29.050322    5.189772
H   46.260403   96.683762    0.745897
H   83.143059   61.559628   89.702423
H   58.327190   79.450752   95.479721
H   63.464684   20.928019   76.784882
H   66.219597   79.012039   29.262117
H   16.936024    7.874411   75.731392
H   35.494091    7.442940   83.352402
H   41.131336   23.501785   35.397728
H   16.165958   55.047970   87.048706
H   68.908936   45.257809   46.694180
H   39.813545   21.287624   89.846375
H   21.352608   29.161968   46.099689
H   30.524664   24.817013   21.922935
H    5.123377   69.873962   20.974352
H   79.040871   10.710006   95.161346
H   45.121166   60.409668   26.902260
H   97.151451   48.858414   73.796783
H   76.981689   87.013115   34.402927
H   91.593979   55.053703   86.508286
H   64.303856   24.485868   65.292023
H   45.742889   87.720795    0.698049
H   84.425232   85.347183    7.652638
H   92.669594   79.140396   96.847008
H    4.402073   11.182549   48.833080
H    0.918626    2.653898   59.679466
H   64.249107    1.717972   84.727600
H   68.775169   86.383598   51.804153
H   90.612740   66.437508   84.320206
H   44.457413   43.340721   71.566879
H   43.409485   12.495178   97.430313
H   47.102650   65.156746   12.616508
H   60.506836   38.853558   44.591766
H   57.287899   55.454170    1.779001
H   60.966454   29.097864   76.947884
H   36.964603   72.121788   46.746876
H   43.338680   60.752331   33.246609
H   43.052025   97.088722   47.790268
H   44.591141   76.061584   69.232323
H   63.287205   67.756393   98.650276
H    7.193274   87.892181   92.655037
H   78.722816   60.104153   51.880196
H   30.798664    9.074249   50.377308
H   72.877419   34.493397    5.957139
H    8.033013   99.512962   77.707047
H   10.797119   52.003990   59.468601
H   61.394394   43.352856   51.876606
H   58.568066   58.754486   79.915085
H   45.036633   37.799065    8.060747
H   15.631316    2.001858    5.237887
H   64.475525   59.840759   75.516388
H   53.258526   87.293869   85.303665
H   46.937649   23.424242   36.159061
H   62.163158   37.665417   37.261574
H    8.668555   18.093895   74.236572
H   59.634003   19.679209    9.126920
H   10.690431   66.698082   62.689941
H   76.122421   98.715340   51.469025
H   23.570190   27.702213   45.076771
H   93.108215   28.401104   37.024586
H   23.232853   10.995510   91.202881
H   80.721375    4.789464   35.982033
H   48.615700   68.084045   57.240086
H   36.301121   80.505020   92.421768
H   72.097527   76.246262   72.599411
H   74.737823   95.570648    2.569650
H   98.715218   47.277336   23.218628
H   36.147125   50.703213   83.937897
H    1.100748    9.133148   63.972332
H   77.417305   23.030085   69.965248
H   89.677948   53.693489   85.383423
H   82.714073   82.645111   43.370090
H   17.795582   30.019375   67.024193
H   68.903687   90.239426    4.664792
H   49.934944   25.088844   74.578270
H   84.604805   91.413872   78.689346
H   97.774040   35.624664   83.598854
H   28.879902    5.740756   97.692093
H   93.832054   64.217110   23.042234
H    8.674486   60.856789   65.731964
H   48.322460   58.659534   64.805984
H   44.428497   33.373371   79.808479
H   48.234959   82.999710   25.528734
H    2.523399   15.834908   56.179798
H   36.344028   60.697247   31.882404
H   87.331116   57.426643   22.048532
H   75.154800   10.209226   30.539106
H    8.989335   83.623421    1.070335
H   30.972912   98.817276   48.969059
H   12.860111   11.413231   81.192436
H    8.748290   37.398102   98.735207
