100
TIME:    4.809, STEP:  4809
H   92.109779   81.011574   94.743240
H   67.662453   65.458084   81.329041
H   62.417007   19.882584   66.896721
H   82.283783   34.520378   76.566170
H   52.097275   58.220062   35.312012
H   53.450260   95.998146   54.998173
H    0.931421   86.064270   66.523071
H   41.908379    4.642246   66.648430
H   35.413536   23.927765   97.376900
H   43.422371   85.433479   96.003571
H   52.933563   59.743076   76.521759
H   72.296089   64.740974   50.618919
H   37.194809   70.780418   47.175537
H   16.967964   90.253181   23.206888
H   38.996178   40.467865   19.607594
H    8.164043   91.116226   33.852478
H   37.396034    0.049713   11.170591
H    3.905239   60.826618   32.820751
H   20.170200   80.097214   16.719629
H   62.951492    3.691496   43.751686
H   78.903847   77.466522   26.720081
H   23.423859   50.468002    9.747467
H   21.536949   55.510933   94.758270
H   72.233276   94.357880   49.915390
H   57.586456    4.781013   72.055397
H   24.624186   84.490585   38.201641
H   47.393768   42.572987   95.384010
H   26.772663   80.907578   25.731600
H   15.738509   85.402275   29.847473
H   85.392090   71.816856   65.690285
H    5.318628   53.287289   28.906166
H   69.400429   19.645531   54.070824
H    9.096294   16.633013   31.029654
H   81.292923   33.006500   69.155708
H   61.232666   95.396439   17.563332
H   90.676086   62.090214    4.308163
H   41.044640   28.420509   87.395798
H   65.225121   70.948021   61.797993
H   42.083836   76.637749   78.284592
H   10.239748   61.981712   16.396063
H    6.591029   21.192526   55.643658
H   99.414940   27.687906   28.730646
H   52.663570   92.338089   48.832481
H   72.271851   93.361755   50.934296
H   39.510555   42.152206   67.629662
H   16.045017   54.641132    2.696954
H   79.304977   86.367210   71.628578
H   56.496243   44.901108   66.131599
H    5.604223   34.168186   52.642418
H   26.736820    3.927405   47.315765
H   43.177723    5.365273    4.121390
H   38.840233   17.499746   58.361252
H    8.624499   49.892944   23.569376
H   65.323235   28.740677   44.023705
H   57.895355   80.039558   41.250393
H   99.583359    7.475121   28.917099
H    1.122550   50.785133   13.363464
H   67.967422   22.737028   89.685776
H   69.551399   41.961533   42.293671
H   41.673954   97.422989   26.831184
H   63.056122   54.929981   39.448090
H   28.234224   83.180588   77.762985
H    0.542869   79.125412    3.702902
H   73.265846   67.959824   96.573288
H   23.199163   76.757812   43.410587
H    5.921375    3.203457   30.528936
H    1.732981   14.622825   99.239975
H   48.175301   92.568558   96.100609
H   96.580978    4.242249   58.621811
H   27.816999   90.020996   91.606750
H   69.324989   68.195602    4.459407
H   77.442596   91.923447    8.713820
H   93.435104   80.433174   38.446243
H   24.343830   45.056835   17.419041
H   94.032967   35.495686   65.952850
H   39.346527   15.784101   72.343887
H    3.580570    9.733795   76.098228
H   57.915890   36.271564   80.023308
H   92.122581   39.393177   71.339729
H   63.682739   47.045757    6.621614
H    4.976666   79.032974   67.411583
H    2.149609   75.633987   84.651634
H   22.054277   87.542786   87.928574
H   81.000961   23.675699   24.189346
H   18.170729   48.079865   81.573845
H   40.613338   85.697350   75.734711
H   88.336952   53.699448   52.855240
H   33.362976   20.274385   45.731766
H   55.484238   26.414484   88.859383
H   41.158504   11.419159   96.128342
H   20.826805   33.104298   35.019085
H   34.116199   57.161926   25.159636
H   93.719841   71.814873   90.891891
H   12.035396    4.933584   51.064075
H   73.446007   18.968353   26.591415
H   91.125244    5.829917   19.058083
H   80.886711   43.659206   60.618988
H   24.517683   57.183441   79.080925
H   79.623505   57.580006   42.233253
H   37.916149   55.224880   34.474010
