100
TIME:    7.917, STEP:  7917
H   81.927971   95.994682   91.897781
H   81.828659   33.874760   77.298111
H   15.856913   43.484253   30.406109
H   82.805450    6.469406    6.204257
H   24.255903    7.339719   51.042435
H    5.244765   92.631020   62.794014
H   38.040188   95.930649    9.572880
H   97.625702   73.522392   81.281349
H   59.012901   25.105957    1.739501
H   58.518440   30.061388   17.701893
H   63.834976   84.800385   77.143509
H   53.673042   20.528652   29.387890
H   38.908989   82.780212   38.337276
H   63.078651   80.673470   59.728397
H   76.765877   62.847366   70.171661
H   83.197433   19.279358   75.860626
H   87.468910    5.619696   94.104095
H   70.367249    9.597771   25.084015
H   68.571854   10.479848   80.459793
H   79.217972   37.686985   55.358772
H   94.470726   68.055725   42.362080
H   21.390841   54.593918   45.072586
H   80.038841   30.234602    5.834867
H   83.454727   31.538546   19.088242
H   46.426460   58.303497   95.008766
H   10.278057   92.710312   45.857773
H   79.387634   13.375979   57.056400
H   64.527184   25.978491   28.465708
H   83.318184   67.384171   82.931633
H    4.566681   94.893387   12.767525
H   27.638662   31.988678   83.011238
H   65.641502   33.773045   66.347725
H   28.019407   89.237328   11.022840
H   12.613606   48.176857   38.219925
H   83.923332   60.242027    6.727754
H   60.848911    5.522035   94.536293
H   39.142353   14.597429   32.293850
H   36.768265   14.065651   81.121819
H   10.891784    8.919867   77.096352
H   17.500885   71.020981   60.928719
H   94.181152   27.834288   28.865568
H   33.012398   72.649673   84.136833
H   79.420929   10.979578   73.325874
H   73.815613   45.528893   54.817028
H   69.913841   19.528942   33.589508
H   75.930229   13.919063   15.324961
H    3.588412   55.391731    1.459409
H   56.670834   76.912521   58.436642
H   96.454048   76.763741   28.661087
H   91.959229   51.235241   29.975376
H   42.957973    5.307966   36.883652
H   89.894409   29.099634   54.335144
H   73.093834   67.914185   43.064522
H   93.354218   78.032501   81.172073
H   10.431355   52.413498   67.686142
H    3.456373    4.205808   23.113434
H   98.156235   61.104759    8.960055
H   36.539230   29.224703    9.630689
H   14.671078   73.290474    3.697712
H   36.578255   36.315334   38.432274
H   59.111156   10.394964   97.125069
H   17.928139   54.251755   37.135101
H   11.545257   67.041168   90.578003
H   86.686150   84.890305   12.191136
H   46.562874   28.526346   32.845123
H   14.994434   48.695763   14.299129
H   52.372955   22.074165   49.295330
H   33.484535   70.318962   44.680984
H   51.485481   80.921211   63.693840
H   90.814903   46.293903   85.051773
H   70.631905   56.729691   67.182716
H   21.321980   88.724022   36.359188
H   90.787537   26.705397   58.760334
H   55.921696   48.352169   32.751678
H   43.840530   39.972561    1.574052
H   12.818099   14.977837   63.214363
H   85.815147   40.564407   31.149984
H    3.934983   33.049419   51.666988
H   41.161522   30.263996    6.010025
H   11.268413   77.742760   38.864510
H   65.803459   11.187356   53.171188
H   35.381950   95.813507   24.668316
H   18.642134   39.518345   83.918182
H   94.826561   89.633789   40.321308
H   66.838104   53.663883   80.288704
H   69.084335   99.857651   91.563599
H   95.913307   27.722084    1.056371
H   83.356163   71.548706   13.490990
H   19.984612   53.366127   63.439949
H   66.370575   83.549210    7.231646
H   48.018970    0.927594    0.654366
H   64.076729   90.913757   84.377052
H   92.948563   65.070030   31.238344
H   12.413717   93.488121   60.629925
H   19.711544   40.573334   98.011536
H   47.833344   83.098633   58.525597
H   34.187737   22.019531   81.874611
H   22.995676   78.191963   19.947523
H   31.565269   70.989723   81.905724
H   30.966608   75.469131   35.070599
