200
TIME:    0.466, STEP:   466
H   16.415747   61.724949   19.204037
H   29.978632   36.177505   99.071877
H   13.400884   79.030136   56.479912
H   25.460644   79.615303   38.589851
H   12.810643   89.457184   50.409164
H   82.266418   46.681000   58.860031
H    6.633559   55.143776   54.025768
H    7.953160   98.645599   17.050289
H   96.606621   84.118088   42.206150
H    2.905606   71.733177   87.158119
H   20.070986   99.422066    0.103485
H   31.712341   48.055107   23.510672
H   16.721066   94.508339   52.029045
H   93.721642   54.160442   53.156124
H    8.710572   73.684349   42.422523
H   22.712917   16.654591   49.447708
H   94.839096   18.303196    4.459396
H   31.195538   94.031494   39.496845
H   72.544846   21.519951   45.810760
H   90.775261   76.601036   28.709843
H   60.797310   88.039978   15.486404
H   84.997688   57.452827   61.865540
H   88.237556   60.898254   43.713463
H   13.395162   90.119652   90.877419
H   13.069638   21.793394   37.346066
H   18.474012   72.366058   99.492302
H    3.272317   63.331516   58.168625
H   99.696808   79.452415    1.325941
H   20.587276   49.660347   37.015007
H   82.836731   26.818594   90.808182
H   13.066431   60.891209   16.471123
H   27.816319   68.803207   99.167259
H   21.662621   13.848551   75.939667
H   88.946785   63.824486   42.240540
H   37.142948   80.462509   32.500019
H   25.678909   44.769051   82.068016
H   92.751068   69.551117   87.651588
H   21.736172   50.601360    5.006046
H   44.705948   38.307880   49.455215
H   87.915375   38.759121   54.868256
H   80.571556   94.666443    9.025723
H   24.588274   38.367805   33.129868
H   72.632645   82.590233   58.720173
H   36.777786   74.210426   26.831156
H   36.498848   83.190399   52.519585
H   37.879425    7.956888   45.145786
H   84.233032   15.139936    1.134307
H   84.613762   65.547157   39.523026
H   95.820557   20.175777   61.329273
H   54.029835   18.821394   96.151169
H   72.832047   67.635597   18.912151
H   12.498884   39.587872   68.400642
H   58.271523   87.955910   10.883892
H   19.043026   86.952957   85.049919
H   67.632797   71.358765   83.464287
H    2.408495   66.782478   86.048676
H    4.785509   17.600685   47.230305
H   69.877792   63.833164    1.224414
H   23.412336   78.843246   12.592551
H   37.876247   94.720131   62.816391
H   49.687576   10.967085   35.633514
H   93.997856   16.960260   50.798393
H   77.673553   29.888220   77.260315
H   29.601803   65.474770    8.713409
H   74.981354   79.448242   27.171114
H   29.874399   25.341402   36.925613
H   77.733253   18.394886   90.504372
H   96.075829   91.963753   91.745964
H   24.561338    8.907313   59.119286
H   43.936024   45.569019   50.970524
H   58.366020   80.500992   79.326538
H   25.788818   17.881384   43.182835
H   84.666641   29.570232   91.928055
H   15.228097    3.997060   67.151894
H   81.896927    4.529994   56.986206
H   59.026176   11.097800   61.400658
H   94.472351   38.363640   68.948830
H   18.184471   10.085276   40.239479
H   13.248768   39.762241   29.932980
H   64.870712   89.406525   83.543732
H   52.960064   26.282419   97.778503
H   36.573902   64.526207   80.870598
H   10.117978   16.145330   83.667244
H   17.304220   69.249702    1.217450
H   30.860313    1.713697   51.377495
H   31.034412   77.866943   23.078224
H   45.984283    3.255043    2.289447
H   73.452065   10.132904   19.966415
H   72.603043   72.607330   77.984741
H   22.312164   96.177086   52.379147
H   31.768978   36.843777   79.749252
H   82.481194   90.518341    3.299118
H   57.995693   14.313236   89.293228
H   49.893627   86.314186   75.310219
H   30.851543   53.869118   77.352425
H   59.912880   32.762192   18.435602
H   82.371300    6.462295    8.062469
H    0.681815   31.950562   50.733356
H   31.896904   67.514099   53.682159
H   71.133980    1.599780   27.305582
H   19.949492   86.675049   79.581825
H   98.976265   80.075745   64.617973
H   27.864164   28.910666   33.660999
H   32.735588   68.356750   99.137054
H   25.039152   24.502724   32.414707
H   96.370201   15.707983   33.309952
H   76.364128   32.902988   55.207443
H   63.419704   42.951630   10.002562
H   78.540016   37.236893   10.060841
H   11.626658   24.909334    6.643366
H   50.167999   94.102867    0.954858
H   95.068649   69.028503   93.085457
H   53.168800   82.897232   89.019554
H   62.458611   14.525066   69.126038
H   56.308418   91.379486   18.848469
H    4.815301   99.185829   89.129837
H   23.282993   11.625016   86.814743
H   39.624493   38.120434   29.460991
H   27.445192   66.198608   72.370010
H   76.746788   51.185482   57.773445
H   42.913338   23.261250   80.114204
H    8.537640   22.126255   54.835983
H   37.685005   12.290867   30.733438
H    0.747539   59.186081    7.968304
H   70.153893    3.356412   85.338539
H   56.002163   68.535797   21.167757
H   89.769051   50.245163   62.326645
H   70.485268   89.342491   36.911312
H   95.248924   44.302998   79.739952
H   78.699310   23.078159   70.351845
H   57.731926   77.116241   12.048077
H   73.025337   88.292892   14.656621
H   91.699776   93.590233   99.056290
H   89.838852   18.797459   52.488888
H   15.590739   97.283691   46.031769
H   56.338745    1.336800   80.352089
H   69.266876   87.140419   66.589348
H   93.146049   57.164486   79.627464
H   52.220490   47.494171   71.496635
H   43.570366   98.250786   89.177795
H   61.806271   56.422569   22.210358
H   46.834213   47.877625   51.515316
H   47.740402   60.920727   91.761368
H   47.357277   18.346876   81.869484
H   50.924999   62.271790   56.458652
H   54.220810   65.869522   19.022232
H   50.076408   95.788078   45.663692
H   36.481377   65.006111   67.528343
H   71.227020   55.356430   95.697769
H   16.666103   91.142189   81.539520
H   68.254219   65.148117   49.638058
H   43.300880    0.856383   41.070000
H   86.674667   23.388073   95.531006
H   15.884178    6.330239   70.367699
H   22.574291   59.847507   64.842079
H   70.211128   44.089283   61.013969
H   61.676922   67.661194   83.431808
H   49.259193   33.033813   15.018852
H    2.038222    0.882773   94.223564
H   61.145901   47.722565   86.914017
H   56.175911   75.227791   77.406898
H   32.993114   21.885109   33.586098
H   74.947533   24.716438   37.138081
H   19.570322   26.818859   61.529457
H   56.790260   29.756933   12.045155
H   15.807467   57.248341   61.066402
H   71.008217   93.911568   54.617535
H   23.829639   41.215088   57.358112
H   97.143837   27.435251   36.323280
H   36.786514    8.754222   87.858368
H   75.047485    8.321483   35.957108
H   38.355568   57.052780   58.152122
H   42.039589   67.743301   84.065018
H   68.443008   69.132149   79.482697
H   60.933777   93.336441   88.604912
H    7.884980   48.881615   23.503569
H   33.096050   59.981064   96.361992
H    3.732980    9.416389   67.770035
H   69.821907   16.125795   66.491577
H   75.549873   56.879387   89.573128
H   77.291702   93.288185   36.464668
H   23.786135   30.381924   77.866669
H   55.229939   89.930283   10.543976
H   56.402489   25.638615   85.504585
H   88.445557   78.532059   77.465744
H    3.991659   38.130783   85.085304
H   39.221436    0.653363    4.272760
H   79.563492   76.797554   33.434433
H    0.073580   62.181225   69.126328
H   53.723305   57.043926   68.558365
H   58.616619   23.547165   77.687569
H   45.800217   91.070953   21.745764
H    9.120473   22.900646   62.983253
H   31.155142   72.550644   37.867870
H   77.138962   44.160755   21.077015
H   75.879898   10.938005   26.470062
H   10.963527   91.721855   11.094831
H   22.341417   92.914528   40.593048
H    8.899549   12.244261   67.909554
H    5.650588   27.335976   94.608948
