100
TIME:    7.755, STEP:  7755
H   92.883537   10.850635   92.046097
H   86.302841   25.095722   67.084122
H   13.072290   31.829140   32.307735
H   82.778259   13.144218   15.084303
H   25.707541   94.354790   55.435043
H    7.757167   92.806526   46.749992
H   46.530010   84.992386   96.904251
H   10.358589   59.506977   96.154915
H   62.995171   40.681824   11.936882
H   62.943184   27.735308   11.358318
H   78.903824   78.281921   92.748764
H   59.856560   12.408520   40.919273
H   49.239159   92.586334   54.435680
H   71.100044   81.172798   47.399677
H   74.798225   77.318008   77.963165
H   89.710953   33.448425   89.307892
H    0.495963   94.904465   79.356598
H   66.904083   17.480484   30.699608
H   66.048019    3.683392   71.924240
H   83.583389   41.126667   44.329048
H    4.084015   84.182556   46.758396
H    5.859742   54.378860   58.868393
H   82.201775   31.551519   10.470033
H   98.506271   29.600557   31.119713
H   52.220650   71.150635   93.812355
H   11.041882   97.486069   61.103363
H   93.356476   20.110239   53.841663
H   78.196922   18.416876   23.110903
H   79.795692   52.686115   90.589653
H   98.355011   98.902847   99.889336
H   21.262953   17.461800   95.828163
H   55.412685   38.248463   81.344887
H   16.608389    1.090155   96.428596
H    5.768540   63.023232   45.044907
H   87.955040   72.507713   96.871490
H   46.766361   92.833359   95.045509
H   23.604740   20.530664   19.528837
H   43.463470   17.030521   69.689171
H   17.730129   12.449156   92.795540
H   32.759422   86.186234   48.182243
H    5.252676   22.276167   25.048918
H   46.664833   72.014389   75.865776
H   78.026764   10.007803   61.624035
H   84.160614   42.809776   38.978176
H   83.966728   25.920101   19.726410
H   78.021477   10.829776   14.666811
H    2.322014   46.581795   99.903633
H   56.660946   75.243973   48.412991
H   91.717842   90.181343   35.123611
H   88.557861   48.769497   41.302856
H   42.969097   20.948446   35.175552
H   82.021332   44.132519   64.969360
H   69.734489   66.974854   52.472664
H   97.106598   80.674988   74.023270
H   23.330471   38.216003   66.309280
H    3.254602    4.376216   28.628296
H   87.885391   65.779167   93.552391
H   48.602219   44.523552   13.803605
H    1.894261   66.445717   16.134579
H   47.268089   23.863018   43.039940
H   48.892223   17.928539    9.755874
H   23.677834   55.759628   44.465591
H    0.546964   78.095612    1.686829
H   75.562492   84.007828   16.589657
H   40.132164   41.465466   17.758390
H   24.945782   56.749290    4.720115
H   65.370331   16.473404   41.474163
H   44.674934   61.054192   36.936447
H   43.410942   92.561501   73.853485
H   87.524773   38.157566   85.395370
H   75.775978   67.751999   69.125648
H   34.662212   94.102928   24.484911
H    1.350089   34.718548   62.914402
H   59.487446   58.604473   42.377350
H   36.036667   39.734020   89.291092
H    8.988162    4.595088   74.115456
H   71.102257   54.586395   28.276991
H   96.324326   43.641613   42.719860
H   33.393501   30.739841    4.202122
H   19.212742   86.567528   52.820992
H   62.631981    9.511392   43.488663
H   23.225819   94.762939   38.220974
H    8.395391   36.809116   68.490906
H   83.680656   75.771240   55.117008
H   74.726013   63.797535   95.992836
H   72.811996   93.907730   80.313873
H   85.093697   39.500801   93.331596
H   80.750755   84.511475   15.170662
H   16.622177   62.386177   64.764900
H   80.692902   90.213516    1.440705
H   41.389271   92.179558   97.233200
H   52.090366   78.729645   81.289619
H   82.564011   60.209263   18.710634
H   96.757118   83.659752   49.706493
H   22.512852   55.084763   94.288818
H   34.452820   89.495972   66.893059
H   47.046684   12.723134   91.191292
H   23.308374   70.175514   23.199957
H   39.282616   70.290169   95.474113
H   20.904642   79.626907   50.677090
