100
TIME:    8.070, STEP:  8070
H   71.581047   81.963768   91.757706
H   77.603043   42.166073   86.944656
H   18.486834   54.491867   28.610222
H   82.831131    0.165417   97.817818
H   22.884912   19.603336   46.893860
H    2.871942   92.465263   77.945625
H   30.021877    6.261905   21.537678
H   85.600204   86.759544   67.234093
H   55.251869   10.395204   92.109177
H   54.339516   32.258244   23.693047
H   49.603287   90.956711   62.405342
H   47.833054   28.197796   18.497589
H   29.152718   73.518875   23.132887
H   55.502892   80.201881   71.371452
H   78.624214   49.180649   62.813210
H   77.045776    5.897240   63.160431
H   75.165596   15.739254    8.032292
H   73.638016    2.152925   19.780399
H   70.955475   16.898815   88.521149
H   75.095078   34.438396   65.775734
H   85.391487   52.823971   38.210003
H   36.059101   54.797028   32.043213
H   77.996071   28.990847    1.457210
H   69.239380   33.368866    7.724977
H   40.954170   46.169441   96.138710
H    9.556667   88.199875   31.459183
H   66.194839    7.015691   60.092541
H   51.617996   33.120014   33.523201
H   86.644981   81.265671   75.699059
H   10.433226   91.106674   24.930180
H   33.660328   45.707924   70.906364
H   75.302055   29.546261   52.183739
H   38.796848   78.042946   24.806288
H   19.078529   34.155281   31.774130
H   80.115608   48.657768   16.036680
H   74.149094   17.506094   94.055367
H   53.816448    8.993818   44.349697
H   30.444870   11.265596   91.919319
H    4.433339    5.586649   62.269341
H    3.090020   56.697647   72.966187
H   83.724503   33.083626   32.470181
H   20.118431   73.249664   91.948387
H   80.737640   11.897366   84.377846
H   64.045807   48.097183   69.776398
H   56.642319   13.492725   46.681915
H   73.955162   16.836723   15.946547
H    4.784454   63.712227    2.928817
H   56.680172   78.488373   67.903419
H    0.926917   64.091560   22.557873
H   95.171631   53.563999   19.277679
H   42.947468   90.536781   38.496857
H   97.330093   14.902380   44.291718
H   76.266548   68.801331   34.179054
H   89.810303   75.536819   87.923721
H   98.249031   65.822083   68.986511
H    3.646934    4.044867   17.904953
H    7.855742   56.690041   23.511726
H   25.146761   14.775312    5.689601
H   26.738014   79.754967   91.952179
H   26.482300   48.075855   34.080589
H   68.762375    3.279995   85.195290
H   12.497871   52.827652   30.212013
H   21.932453   56.600861   80.086334
H   97.191826   85.723755    8.037017
H   52.636322   16.306494   47.093155
H    5.595940   41.089653   23.345737
H   40.097656   27.363773   56.681988
H   22.915825   79.069023   51.995270
H   59.111435   69.927605   54.097488
H   93.922249   53.978222   84.727264
H   65.773613   46.319473   65.347725
H    8.722924   83.643944   47.573414
H   80.811813   19.137224   54.837048
H   52.554043   38.669437   23.661303
H   51.210846   40.197849   13.174377
H   16.435297   24.783718   52.919968
H   99.710655   27.321419   33.863770
H   11.122407   23.045681   60.117054
H   48.497986   29.814587    7.717489
H    3.765397   69.408257   25.683388
H   68.798744   12.770211   62.315796
H   46.862320   96.805710   11.868317
H   28.319613   42.077061   98.488388
H    5.352948    2.726261   26.347591
H   59.388412   44.093212   65.457024
H   65.563766    5.477592    2.188385
H    6.131887   16.597740    8.352089
H   85.816826   59.305641   11.904633
H   23.160244   44.847191   62.188606
H   52.842968   77.255142   12.700747
H   54.280354    9.188827    3.885578
H   75.397179    2.420892   87.292961
H    2.756150   69.659843   43.070068
H   27.200457    2.770448   70.946495
H   17.065865   26.868095    1.527305
H   60.470505   77.056702   50.622993
H   22.043653   30.799358   73.075523
H   22.700350   85.763054   16.875780
H   24.276665   71.650414   69.091133
H   40.469578   71.542343   20.331135
