100
TIME:    3.328, STEP:  3328
H   92.263580   16.826653   96.099136
H    8.695459   85.183853   87.929276
H   36.960060   13.333774   84.274788
H   82.035202   95.535698   57.745403
H   65.362457   39.511379   75.469131
H   76.415291   97.602623    8.328594
H   78.549126   86.060051   50.706871
H   58.312057   76.515762    2.627357
H   71.819344   66.319748   90.601051
H   83.895866   64.168510   38.011353
H   90.692581    0.152050   19.180014
H   28.820084   90.506271   56.038200
H   31.568676   60.358765   94.353111
H   90.298180   94.818031   10.501675
H   20.981903   72.757004   90.798195
H   67.712738   20.650177   56.788429
H   56.489204    2.092985   76.349319
H   72.259972   32.860146   84.167664
H   97.102776   17.966211   38.693790
H    2.858917   35.142071   42.918327
H   66.788483   24.904320   66.912659
H   81.438950   48.501953   35.868317
H   41.310432   67.555809   37.133224
H    9.834290   76.595825   59.908428
H   10.556190   22.232048   61.117836
H   31.398718   28.446684   77.237190
H   75.102310    4.135109   66.006264
H   51.734348   11.779480   76.778740
H   83.534683   51.034012   99.856728
H   28.602985    8.471877   47.954773
H   47.033672   20.483995   46.078178
H   75.889198   60.559692   91.174446
H    4.776718   24.989693   97.609474
H   18.717125   68.731422   31.546810
H   98.045242    7.348842   27.380424
H   61.911678   45.917217    9.199307
H   98.997902   82.656723   70.698723
H   26.439667   98.043343   57.288090
H    4.595287    8.906511   21.804190
H   49.732616    0.626518   99.873940
H    7.806933   70.373550   20.751936
H   32.519493   61.222641   59.153336
H   39.906849   83.456970   41.858410
H   66.843781   68.548676    6.128509
H   67.975319    0.587006   40.897152
H   35.151852   26.393299   96.681618
H   67.734665    5.825192   57.409035
H   56.417149   29.648149   74.495720
H   62.307678   56.823654   11.718097
H   95.677086   81.394966   50.898922
H   43.290714   48.346802   88.506729
H   66.867264   54.926315   55.586018
H   77.910805   41.305603    9.583794
H   99.627403   52.909523   78.672272
H   75.812820   50.241859   28.653360
H   97.730301    9.033926   79.333832
H    7.233419   93.518456   72.507912
H   78.246574   62.599121   27.834663
H   52.748230   79.384598   55.991688
H   39.404778   83.589172   68.954353
H   69.633430   23.805397   54.917835
H   80.797386   96.965530   44.773857
H   99.997734   80.186211    5.259537
H   71.568230   59.897995   36.785938
H   64.418663   95.041817    5.490968
H   96.901009   76.828133   42.961136
H   20.556957   63.417484   27.738718
H   50.478096    7.868650   25.300245
H   22.768730   10.657463   51.507153
H   97.811829   15.530987   94.725311
H   16.352985   68.962624   22.227013
H   99.558884   41.075378    0.281843
H   89.999283   53.688473   76.418938
H   56.952419   38.777000    5.416368
H   22.628252   33.382748   53.683140
H    4.331308   20.865850   71.996429
H   69.116615   38.097710   49.906834
H   88.335815   33.110462   98.231796
H   21.103056   43.743343   54.814117
H   36.314034   27.703316   34.210953
H   76.004013   63.711346   78.895737
H   91.027634   65.961929    8.491945
H   28.361372   62.807373   46.875401
H   79.110703   96.942841   59.454544
H   90.282883   40.716610   25.140038
H   74.699280   31.296604   72.889587
H   89.424309   61.380211   82.235138
H    9.527132   38.846527   61.132484
H   24.749264    8.874838    0.972373
H   72.099304   72.353836   43.185043
H   60.218079   53.133091    3.743075
H   24.531046   45.789711   96.938774
H   98.785980   27.373396   76.363792
H   68.892403   15.100033   51.207863
H   99.049843   51.628338   92.561516
H   68.800735   64.312141   95.553215
H   98.441742   58.667660   45.793449
H   19.082800   44.573608    2.785534
H   50.175133   51.195995   66.282951
H   45.925114   93.232552   77.143326
