100
TIME:    7.467, STEP:  7467
H   12.359724   37.260994   92.309769
H   94.256943    9.488774   48.924091
H    8.121851   11.110023   35.689327
H   82.729919   25.010551   30.870590
H   28.288229   71.270317   63.244125
H   12.223659   93.118538   18.227818
H   61.623028   65.546585   74.382278
H   32.994820   34.592182   22.598358
H   70.074760   68.371765   30.065422
H   70.809395   23.600054    0.081008
H    5.692871   66.693542   20.490610
H   70.848114   97.972946   61.419762
H   67.603905   10.018484   83.056526
H   85.360298   82.060493   25.481953
H   71.300179    3.043577   91.814728
H    1.290654   58.637878   13.214533
H   23.655495   75.854172   53.138821
H   60.746181   31.494644   40.681931
H   61.562397   91.602234   56.750973
H   91.344131   47.241657   24.720652
H   21.174347   12.853409   54.574070
H   78.248901   53.996536   83.394272
H   86.046989   33.893593   18.710508
H   25.265627   26.155245   52.510048
H   62.521431   93.989014   91.685402
H   12.399792    5.975513   88.204674
H   18.190794   32.082047   48.126575
H    2.498506    4.974006   13.591111
H   73.533485   26.556463    4.203645
H   87.311554    6.031237   76.993828
H    9.928063   91.636154   18.613731
H   37.228115   46.204762    8.006432
H   96.321907   22.160921   70.483284
H   93.599815   89.416786   57.178207
H   95.122520   94.313377   79.350494
H   21.731167   70.276230   95.950783
H   95.981735   31.078638   96.835846
H   55.366058   22.301762   49.366043
H   29.887600   18.723448   20.704456
H   59.884666   13.147489   25.522158
H   24.934721   12.395062   18.263762
H   70.935829   70.884995   61.162098
H   75.548248    8.280203   40.822521
H    2.551476   37.975792   10.819489
H    8.949242   37.282162   95.081001
H   81.739250    5.337577   13.496767
H    0.070645   30.919609   97.139473
H   56.643368   72.277664   30.593166
H   83.297920   14.033634   46.613113
H   82.510986   44.385952   61.440796
H   42.988873   48.753082   32.138931
H   68.024750   70.857300   83.874634
H   63.762234   65.304932   69.198250
H    3.776245   85.372742   61.314285
H   46.261551   12.976775   63.861401
H    2.895899    4.679164   38.432495
H   69.626114   74.089226   66.161278
H   70.047531   71.721306   21.222509
H   79.180229   54.275501   38.244255
H   66.272499    1.725633   51.231346
H   30.725153   31.321972   32.209885
H   33.899513   58.440292   57.497574
H   80.995659   97.747955   21.435852
H   55.786190   82.438980   24.409725
H   28.700108   64.468597   90.937843
H   42.637726   71.066673   87.691162
H   88.476776    6.516976   27.569517
H   64.568977   44.583488   23.168381
H   29.056206   13.255325   91.915009
H   81.675652   23.692965   86.006210
H   84.920998   87.347214   72.579750
H   58.377300    3.665626    3.374954
H   20.128881   48.963421   70.297668
H   65.827187   76.832336   59.489655
H   22.163912   39.309948   67.454666
H    2.179187   86.137718   93.495338
H   44.946003   79.513008   23.169447
H   82.793564   62.472805   26.813852
H   19.583685   31.585789    0.988050
H   33.335770    2.256118   77.632515
H   56.993797    6.531899   26.275284
H    1.614896   92.895264   62.313992
H   90.179268   31.992712   41.062798
H   63.865726   51.126705   81.421928
H   88.748962   81.815086   23.910666
H   79.438950   83.330093   60.314362
H   65.858833   60.440742   79.598686
H   76.118919    7.556757   18.156746
H   10.644517   78.421822   67.120369
H    6.155196    2.061558   91.144516
H   29.603138   76.627312   91.151169
H   30.781282   57.069000   75.800850
H   64.102585   51.567417   96.439156
H   68.922157   66.187096   30.287119
H   27.492954   80.881424   87.670654
H   10.665221    0.868958   81.768547
H   69.907036   96.195724    7.754539
H   23.864283   55.925297   28.982061
H   53.002342   69.046516   19.597462
H    3.016312   87.018509   78.420822
