100
TIME:    6.429, STEP:  6429
H   82.555496   32.450035   93.260086
H   22.921886   53.243168   83.474831
H   90.274887   36.431480   47.877148
H   82.555695   67.775482   87.767456
H   37.587082   88.070129   91.389359
H   28.323154   94.243080   15.431328
H   16.026749   95.453789   93.209251
H   14.579575   44.791645   17.903950
H   95.590782   68.171234   95.403740
H   99.160530    8.694939   59.439091
H    2.245111   24.927099   20.476021
H   10.462570   45.943073   35.305305
H   33.818985   72.816048   86.203789
H   36.754753   85.259895   46.490452
H   58.692635   95.762871   41.731602
H   43.028214   49.425209   99.377441
H    7.125143    7.200037   58.645576
H   38.548351   82.004013   76.662148
H   45.399082   48.058960    2.068035
H   19.309677   69.282997   54.048820
H   82.770752   16.189693   82.748329
H   78.734833   52.618576   71.789551
H   99.905785   42.335579   48.409698
H   21.710823   13.737764   29.599646
H   99.647163   76.308502   84.019508
H   17.239313   36.602348   85.862816
H    7.698654   75.232315   27.528448
H   90.081558   56.523689   79.282303
H   50.963448   32.380810   53.269531
H   47.509098   31.722252   94.476059
H   69.078850   98.556923    0.736984
H   71.688263   74.883591    4.099322
H   23.206879   98.106606   76.972046
H   49.742668   84.543289    0.908577
H   20.956253   72.904549   16.195910
H   31.499239   88.975334   99.213539
H   96.424049   69.091431   15.045226
H   98.271294   41.300190   76.117638
H   73.703400   41.338676   21.294329
H   57.652752   10.321505   43.855022
H   95.875519   76.776573   93.810158
H   58.412888   66.814468    8.172204
H   66.615265    2.053489   65.846367
H   68.829102   20.553305    9.329677
H   98.987984   78.235672    6.256855
H   95.138725   85.540176    9.279734
H   91.961227   74.468704   87.176979
H   56.582760   61.586594   66.368011
H   52.954002    0.001066   88.018600
H   60.718235   28.586069   34.015945
H   43.060146   48.965256   21.198353
H   17.572266   67.177094   52.012398
H   42.229626   59.286255   29.482012
H   27.811356    2.305053   15.510413
H   28.908779   22.011497   55.031368
H    1.603071    5.771039   73.768463
H    3.823511    4.040263   67.438835
H   47.338776   69.747765   47.959702
H   97.319138   10.410687   17.928688
H   34.770988   21.942158   80.754539
H   65.246910   79.592789   13.141161
H   70.740150   68.101852    4.460816
H   10.524824   68.579628   92.614624
H   84.507858   76.784592   52.594555
H   87.500900   47.371044   94.273415
H    6.403652   22.668297   26.316496
H   71.757706   70.627563   77.454056
H   36.270866   85.218300   73.545975
H   77.323311   87.839401   57.018223
H   60.632576   71.503349   88.195496
H   17.882557   57.972076   85.028908
H   43.866444   38.159103   27.322723
H   87.808014    0.303230   96.906555
H   88.682320   42.527637   21.164019
H   72.137688   37.806934   88.759537
H   77.644585   19.610954   63.337936
H   50.673428   69.355247    4.760833
H   34.026440   30.343344   69.490623
H   69.805489   34.634724   89.409492
H   84.241104   58.801704   67.057091
H   36.678162   95.792618   64.235275
H   23.724325   86.163849   49.153904
H   24.523415   14.633737   42.209221
H   92.454689   62.302635   76.226830
H   39.290718   46.748192   24.532822
H    3.324562   45.202621   88.232376
H   96.533089   35.912117   30.102987
H   59.425011   90.618713   28.919090
H   89.102402   36.215279   75.609871
H   97.928268   44.770405   54.036751
H   87.123802   20.579754   69.230515
H   53.979794   79.001740   56.021606
H   97.564896   20.420765   16.169016
H   68.604347    3.213127   60.296585
H   45.439110   73.859512   63.817692
H   24.930664   41.856903   35.382874
H   52.298393   36.626663   67.451645
H   25.867868    4.566515   49.818344
H    2.450474   64.564186    6.540291
H   38.540699   13.656754   78.414864
