100
TIME:    9.958, STEP:  9958
H   43.902740    8.826018   90.029190
H   25.460392   44.474293    5.988082
H   50.939716   90.322716    6.447659
H   83.148026   22.381304   94.330215
H    5.967066   70.934601   95.704384
H   73.601318   90.419853   64.920830
H   31.071705   33.750229   69.181747
H   37.207138   50.094791   93.882805
H    8.841225   28.870831   73.267815
H    2.768071   59.367130   97.616707
H   73.986053   66.922852   80.541496
H   75.773201   22.832867   84.108009
H    8.760998   59.243362   35.509407
H   62.020859   74.382545   15.047787
H    1.556090   80.535187   72.018333
H    1.132331   40.765915    6.439518
H   23.344002   40.614639   79.904373
H   14.013274   10.282597   54.332283
H    0.369039   96.102203   88.000015
H   24.230366   94.343475   94.319572
H   73.354385   64.868721   86.964661
H   17.063507   57.303375   71.262604
H   52.788177   13.638771   47.471344
H   93.815933   55.954803   67.507797
H   73.429428   96.440567   10.077057
H    0.651399   32.541672   53.790257
H    3.389111   28.534044   97.545212
H   92.314766   21.245487   95.929649
H   27.698360   52.559513   86.452469
H   82.827354   44.379135   75.021156
H    7.964723   15.009230   21.533829
H   94.511642   77.381226   77.402153
H   71.786537   39.907318   94.892235
H   98.850693   61.131401   52.236336
H   33.128792    5.709631   30.906019
H   38.268848   65.389130   88.120796
H   34.900978   39.852303   93.116898
H   52.408047   76.720467   25.149651
H   24.741001   64.448936   79.308449
H   25.261486   79.948395   21.508993
H   54.692490   97.867279   76.950645
H   61.007439   80.659317   88.322502
H   96.985687   23.225040   20.749630
H   43.500637   79.793861   54.372677
H   92.843597   38.966892    8.228797
H   49.591614   52.844433   23.616835
H   19.545971   66.392822   21.059050
H   56.795406   97.934174   84.721802
H   56.109909    7.733259   47.215790
H   34.801056   82.309746   87.269753
H   46.729939    8.556442   52.391159
H   89.087509   39.710632   20.354982
H   15.421610   79.748596   24.526859
H   46.084763   44.731422   71.235420
H   47.924355   31.276056   85.032898
H    5.998436    2.058874   53.632965
H   27.546074    2.212270    3.076046
H   84.562943   36.477180   57.060204
H   75.647896   59.533997   47.009686
H    1.894508   93.192596   80.381386
H   87.862427   15.478407   37.999218
H   45.489037   35.254410   44.788101
H   50.139278   27.815493   50.643143
H   26.837757   96.008423   56.782532
H   27.572342   65.514931   22.913752
H   89.614471   47.231865   34.979534
H   88.619118   92.636475   47.834789
H   92.498451   87.045662   42.252594
H   53.208702   34.267960   35.684605
H   32.266769   48.807781   80.722870
H    5.811549   17.853016   42.704170
H   53.249329   20.956444   85.962860
H   57.712341   25.746805    6.424206
H   10.997646   19.178864   11.483351
H   42.157051   42.977879   56.323826
H   61.074211   45.787624   25.882595
H   71.181587   63.911167   67.352318
H   99.816978   99.600761   64.394920
H   39.035240   24.268932   28.789560
H   11.176200   66.559761   63.030647
H    5.759628   32.302441   75.159538
H   88.536064    9.058831   53.916794
H   47.739250   73.651283   78.292908
H   35.243732   64.286942   53.907242
H   67.460190   25.987534   82.437927
H   22.106518   74.829277   33.297077
H   32.227222   79.324120   98.378944
H   16.179569    8.228581   92.334778
H   62.341557   39.726311   46.747200
H   85.917999   99.575302   80.190216
H   31.545706   11.133727   43.756859
H   15.090059   44.415939   23.265886
H   23.780369   26.304174   89.072014
H    5.751688   17.016949    4.262572
H   84.422379   57.753532   44.909187
H   16.411606    2.502375   53.105316
H   72.183189   39.146805   64.494339
H   19.056063   79.181793   78.966881
H   34.336723   79.803246   10.950115
H   57.739876   23.097130   38.454365
