100
TIME:    5.475, STEP:  5475
H   47.070229   19.936333   94.133499
H   49.268593    1.544788   23.321384
H   73.869278   67.797440   59.078671
H   82.395569    7.079716   40.059662
H   46.131973   11.602816   17.255585
H   43.120228   95.276619   20.953646
H   66.023827   31.035847   18.605211
H   89.562088   62.257923    5.496903
H   19.041985   59.894470   55.456154
H   25.222544   94.996254   22.084311
H   90.983871   86.541199   12.370136
H   46.876617   98.124306    3.213024
H   94.695877   30.506916   80.998222
H   83.991844   88.200386   73.890633
H   47.095573   80.978561   87.594116
H   81.385605   32.865616   78.568085
H   83.840126   44.098873   71.799194
H   18.146879   28.423672    9.734335
H   30.543423    8.034808   51.805157
H   45.009857   89.546181   89.096107
H   39.382454   11.163277    8.643795
H   87.273926   51.352127   53.031448
H   12.644410   50.094398   75.703857
H   10.351189    2.325167    0.451449
H   33.765900   51.965637   76.973976
H   21.588182   64.806107   75.572922
H   89.963516   14.887175    8.597931
H   70.576424   11.994179   47.748337
H   30.219887   45.826603   98.366760
H   10.929493   55.333519   18.635330
H   31.530396   13.009704   76.214363
H   11.452015    1.245803   92.415901
H   56.009747   67.905296   91.028191
H    9.432914   71.971672   41.097450
H   44.678192   45.052139   58.116203
H   48.569782   14.254021    2.213379
H    4.923127    4.028320   39.873821
H   37.700161   58.761173    8.797821
H   13.969777   62.125908   13.744204
H   47.509312   99.631599   68.797020
H   61.074127   44.042580   71.334328
H   39.558678   57.580101   60.015453
H   58.400219   96.331894   96.939461
H   29.746494    4.540535   16.052759
H   81.739647   15.877435   24.621233
H    7.451207   67.344070    5.403964
H   84.508102   22.587307   78.020699
H   56.531811   51.760696    7.339861
H   25.070290   79.010010   26.073513
H   40.704975   14.064352    0.736541
H   43.126911   41.067871   11.142306
H   71.207329   55.700993   14.637726
H   22.439541   53.754639   84.889885
H   49.901428   17.872040   73.413231
H    4.866931   38.407772   46.915905
H    0.414813    6.774554    6.244888
H   43.342491   31.568123   76.705467
H   18.375835   59.841545   72.531723
H   22.078657   70.101265   91.164375
H   97.726135   48.615505    7.888557
H    5.067446   23.959549   87.521935
H    4.599039   76.981552   47.628845
H   45.758518   33.679367   58.033264
H   18.997601   71.587784   78.494461
H   49.635681   23.564594    5.431655
H   65.008080   70.094627   69.908058
H   48.299255   37.647480   31.396023
H    2.169944   30.659002   27.939260
H   29.775290   56.387749   16.849457
H   41.308311   23.518360   90.204346
H   48.177132   22.881668   96.470619
H   22.528637   69.820328   57.476662
H   50.011368   47.489372   21.368408
H    9.684635    2.906796   77.847832
H   26.143461   36.445866   16.440151
H   55.093094   58.470100   27.531794
H   64.050499   52.010120   87.876396
H   89.205780   92.723427   16.802736
H   24.059551   37.436924   78.768410
H   31.023346   10.769410   49.245056
H   18.008959   85.923050    7.217263
H   52.124832   79.977036   28.957365
H   64.182289   98.680725   51.355618
H   26.821527   80.666550   63.359310
H   85.741737    6.419589   17.012413
H   25.283428   10.159190   21.983994
H   32.817604    5.275760   84.612595
H   44.082054   66.959595   38.810493
H   69.305038   89.333351   83.412361
H   82.275330   84.019333   19.935961
H   48.082237   69.064499   49.083782
H   83.393456    7.251898   37.847336
H   36.411423   91.796791   42.394733
H   76.405067   45.335033   95.970055
H   61.932060   59.313404   41.895023
H   46.134155   79.530121   84.657928
H   28.022341   81.879814   22.317078
H   26.961729   62.854034   68.420616
H   47.896637   60.450871   86.448265
H   79.283890   38.136883   70.317291
