100
TIME:    6.024, STEP:  6024
H    9.944105   69.590691   93.630875
H   34.106087   31.295576   57.939121
H   83.310242    7.294985   52.632511
H   82.487717   84.460968    9.966342
H   41.214630   55.607590    2.370686
H   34.604931   94.681847   75.323753
H   37.252468   68.108131   61.537724
H   46.411774    9.755076   55.090954
H    5.546516    7.110343   20.897203
H   10.223803    2.879305   43.581699
H   39.917221    8.631290   59.486526
H   25.921364   25.642399   64.134117
H   59.662949   97.306633   26.446709
H   56.808235   86.508217   15.668652
H   53.772102   31.939167   61.205883
H   59.312012   84.847878   32.996796
H   39.692940   80.411201   21.776831
H   29.887350    1.711275   90.702675
H   39.092587   31.067575   80.729431
H   30.220131   77.885292   26.474512
H    6.804008   56.509861   93.742210
H   39.907089   52.080933    6.279011
H    5.313614   45.629417   59.996841
H   59.342350    8.892794   59.679745
H   14.131843    8.425789   81.028481
H   19.085531   48.575729   23.947929
H   42.622772   92.066116   19.491606
H   24.254444   37.619652   65.896835
H   42.157219   95.636688   72.414581
H   31.979240   41.745903   62.279251
H   53.139015   62.238331   32.779228
H   46.116215   86.075226   41.592186
H   94.679192   27.737444   40.486450
H   32.630775   21.658958   17.969618
H   31.031788    3.550987   91.548370
H   96.293976   57.254372    0.486821
H   57.578278   83.922974   83.133034
H   15.010353   48.712872   47.537800
H   90.796753   50.163445   60.541878
H   95.800201   48.236958   11.989805
H   23.553680   62.878433   84.268532
H   92.543976   65.226257   87.495293
H   63.129078   99.624084   36.594040
H   94.691605   13.755514   69.729942
H   34.118603   94.216660   71.600204
H    0.366715   77.815414    7.634360
H   88.797165   52.443863   83.289879
H   56.561131   57.415222   41.308887
H   41.116577   33.542053    4.173179
H   52.219265   22.420485   62.336288
H   43.087955   88.064911   16.929649
H   97.888313    4.756898   78.597939
H   33.828175   56.937927   53.005291
H   37.189217    8.913587   97.639732
H   61.155174   86.519547   51.586124
H    1.098644    6.197060   87.555618
H   78.146751   15.727056   28.920082
H   77.496246    7.994856   58.391220
H   65.375702   93.297386   49.019310
H   61.495575   90.812363   92.273705
H   39.699574   98.428848   44.716969
H   85.114388   71.871536   22.786629
H   83.030174   96.215736   20.386688
H   56.697906   74.578400   63.591526
H   71.427216   79.717758   56.558033
H   31.282021   42.802116    2.369295
H    4.251319   56.625744   57.901138
H   64.246864   62.056370   54.184635
H   57.139004   16.940102   82.418091
H   52.428879   51.132744   89.048309
H   30.744286   85.527847   89.886238
H   77.260269   51.600189   97.670547
H   14.215084   20.335083    7.290733
H   97.599785   68.158897   45.227501
H   52.611294   37.229122   58.058243
H   68.072060   93.654472   90.590820
H   13.894748    4.425360   97.585426
H   14.998805   56.826820   47.123558
H   50.384510   35.824337   84.892052
H    4.102800   80.863625    1.948266
H   28.752558   91.602707   40.028965
H   93.330460   83.537292   83.033195
H   98.905266    7.861430    3.638185
H   64.589928   27.646069   13.218268
H   59.010490   72.081337   63.793152
H   12.646610   30.324905   60.108063
H   69.484062   65.358910   10.791082
H   52.911491   23.026731   33.118271
H   80.697861   58.765404   78.922249
H   33.735943   61.434261   39.560547
H   70.549553   98.710968   60.677654
H   24.013895   48.541458   48.306114
H   71.603516    8.268170   84.849747
H   29.464062   78.642281   32.988007
H   52.440834   10.135784   54.510899
H   91.479263   57.850250   56.301529
H   84.445763   13.385550   90.743347
H   26.649614   84.525803   57.947884
H   21.743408   62.817394   40.464355
H   13.385702   24.049648   17.429127
