100
TIME:    7.617, STEP:  7617
H    2.215980   23.505550   92.172440
H   90.114182   17.617283   58.382633
H   10.700205   21.901230   33.928082
H   82.755096   18.830170   22.648582
H   26.944120   83.293480   59.176895
H    9.897361   92.956032   33.082863
H   53.762081   75.674606   86.112473
H   21.205116   47.568638    8.825543
H   66.387474   53.949921   20.623474
H   66.712410   25.753832    5.954583
H   91.740250   72.729156    6.041872
H   65.123779    5.491516   50.742424
H   58.038933    0.939604   68.149452
H   77.933083   81.598152   36.897434
H   73.122078   89.644852   84.600372
H   95.259506   45.518372    0.762995
H   11.593317   85.776199   66.793915
H   63.953960   24.195602   35.482880
H   63.898136   97.894196   64.653214
H   87.302078   44.056767   34.933357
H   12.273132   97.920227   50.503407
H   92.629547   54.195663   70.620377
H   84.044273   32.673653   14.418508
H   11.328440   27.949678   41.369225
H   57.156441   82.094025   92.793190
H   11.692547    1.554092   74.089531
H    5.256109   25.846727   51.103184
H   89.841515   11.975501   18.549402
H   76.795052   40.165546   97.113152
H   93.063354    2.318487   88.918571
H   15.831784    5.087253    6.746223
H   46.699245   42.060856   94.120247
H    6.887646   11.186609   83.996468
H   99.937553   75.670143   50.858780
H   91.389458   82.956261   88.476013
H   34.770115   82.024734   95.479286
H   10.368756   25.584902    8.655114
H   49.166794   19.556324   59.950684
H   23.555584   15.455587    6.168725
H   45.756935   99.104782   37.324135
H   14.683676   17.541471   21.797697
H   58.294685   71.473221   68.820061
H   76.839142    9.179995   51.656643
H   92.973022   40.493492   25.485565
H   95.937706   31.364422    7.917046
H   79.802910    8.198161   14.106165
H    1.243231   39.077034   98.579140
H   56.652523   73.822617   39.874325
H   87.683296    1.611012   40.628998
H   85.660400   46.669048   50.952286
H   42.978573   34.271729   33.720505
H   75.314636   56.938412   74.028137
H   66.872826   66.174683   60.487007
H    0.302963   82.925995   67.933548
H   34.318497   26.122097   65.136398
H    3.082723    4.521379   33.326141
H   79.136154   69.761070   80.427483
H   58.878098   57.555809   17.358412
H   91.009911   60.614384   26.728947
H   56.374245   13.255490   46.964989
H   40.187206   24.346226   20.515167
H   28.575722   57.044113   50.710083
H   91.178612   87.512360   11.149902
H   66.086784   83.256088   20.336773
H   34.654152   52.487820    4.906700
H   33.422943   63.609703   96.560333
H   76.442169   11.702621   34.811687
H   54.207497   53.161980   30.339249
H   36.532631    2.477290   82.507965
H   84.722069   31.226610   85.688065
H   80.157967   77.141373   70.780739
H   46.025692   98.684959   14.369636
H   10.348188   41.544216   66.452454
H   62.524937   67.338318   50.576996
H   29.389139   39.530819   78.827805
H    5.725531   95.750755   83.401649
H   58.569050   66.530830   25.829626
H   89.840836   52.664593   35.098232
H   26.776297   31.145191    2.662056
H   25.979977   94.084923   64.709846
H   59.930351    8.083718   35.240585
H   12.870528   93.868011   49.765545
H   99.666420   34.501255   55.348457
H   74.185997   63.962399   67.721062
H   81.445343   72.430931    9.370244
H   75.987411   88.839279   70.730774
H   75.876991   49.534523   86.751244
H   78.531334   95.553833   16.601494
H   13.757882   70.069923   65.893562
H   92.893402   95.890518   96.507217
H   35.741749   84.727440   94.318893
H   41.879765   68.350586   78.659584
H   73.717911   56.068378    8.038882
H   83.419533   75.287437   40.401348
H   24.899151   67.446060   91.117615
H   23.054596   94.945557   74.020897
H   58.000603    4.803812   99.127724
H   23.574747   63.346790   25.970549
H   45.856651   69.694252    7.032993
H   12.333225   83.168716   63.971508
