100
TIME:    5.823, STEP:  5823
H   23.536528   88.023460   93.814896
H   39.657387   20.403067   45.264675
H   79.853714   92.834366   54.992580
H   82.453979   92.741913   20.984043
H   43.014969   39.496552    7.820362
H   37.722553   94.899605   55.418156
H   47.786137   54.535511   45.819263
H   62.209976   92.365799   73.545937
H   10.487480   26.435791   33.549507
H   15.714529   99.993019   35.711735
H   58.613754    0.543807   78.848244
H   33.593506   15.567266   78.441750
H   72.489212    9.461826   46.419121
H   66.760704   87.127754    0.371924
H   51.327690   49.893478   70.867432
H   67.393600    2.428063   49.681366
H   55.856117   67.115685    3.479009
H   25.588926   11.491222   97.670937
H   35.962696   22.634813   70.139023
H   35.634949   82.154579   12.789484
H   18.731636   76.519653   99.198433
H   20.637024   51.814102   23.396011
H    7.997446   47.264137   65.747498
H   78.017799    6.488253   74.607361
H   21.320263   24.366608   79.544044
H   20.001802   54.518074   42.848747
H   59.956017    0.420724   15.502998
H   41.213863   28.237648   59.252579
H   37.786720   77.400208   81.916199
H   24.272594   46.720604   46.300095
H   45.227646   44.215008   48.681709
H   33.424900   91.629593   60.199776
H   80.521843   42.443565   22.378782
H   24.137497   40.079460   26.436884
H   36.028107   18.745440   79.307907
H   78.821182   41.511375    1.118942
H   38.300545   91.283813   67.294960
H   23.317867   52.391758   33.354382
H   99.280121   54.543144   80.020500
H   14.732275   67.054390   96.175682
H   37.290375   55.982246   79.533058
H    9.483308   64.438034   77.233055
H   61.397747   98.418747   22.075794
H    7.526308   10.381796   50.077583
H   51.553059    2.147637   54.400372
H    2.960518   73.981644    6.817767
H   87.226852   41.513016   81.360725
H   56.550396   55.344986   28.872137
H   35.241707   50.188286   12.191510
H   48.003651   19.361135   76.395309
H   43.101757    7.470165   14.810893
H   88.119865   23.408226   91.792244
H   29.658566   55.772461   64.679802
H   41.843414   12.193377   88.769920
H   77.158867   68.905670   49.876263
H    0.848284    6.408492   94.398132
H   65.403297   21.526802    9.803244
H   92.463287   26.977388   63.568344
H   49.523697   84.804817   64.449471
H   74.760132   75.363800   97.990623
H   27.020226    7.776155   60.387890
H   92.248268   73.742416   31.881866
H   69.385017    9.931721   34.169861
H   42.894798   73.483475   69.047867
H   63.449799   95.770523   37.840031
H   43.629784   52.794456   90.484535
H   20.378414   49.677418   48.197098
H   78.131248   50.561192   44.575672
H   47.120594   31.382683   95.023529
H   48.357414   41.022324   89.471558
H   37.126900   99.203674   92.296913
H   93.834427   58.270950   82.955002
H   27.321213   30.276817   12.444855
H    2.024833   80.880882   57.170464
H   42.921055   36.942356   42.821304
H   63.321030   80.773003    4.116045
H   95.645348   21.846781   94.030754
H    5.555460   69.969826   36.022491
H   40.746410   36.414738   82.650063
H   13.959732   91.812874   19.264385
H   24.819109   89.523270   28.015715
H   78.243805   82.233810   99.846581
H   86.192482    4.500172   84.496704
H   50.762215   10.445597   31.575954
H   68.797340   84.653038   83.277908
H   17.273205   22.941830   46.150070
H   56.059731   79.973244    1.206544
H   49.678856   39.111271   35.202309
H   76.526718   69.956947   80.566170
H   51.507771   69.703415   32.376060
H   62.323814   87.856796   56.432903
H    9.141932   33.424133   44.476944
H   58.718979    2.236911   69.306107
H   10.038464   66.447823   19.434862
H   55.915764   28.140705   49.891972
H   74.877502   65.787689   66.683380
H    0.400372    1.850884    2.303012
H   27.037592   74.579468   61.982544
H   31.318634   61.950962   57.300743
H    0.901052   29.207603   36.792736
