100
TIME:    9.385, STEP:  9385
H   82.652985   61.372353   90.553787
H   41.284836   13.422604   69.860405
H   41.090405   49.098122   13.174524
H   83.051849   45.989067   25.738344
H   11.101561   25.006119   11.240395
H   82.484497   91.040627    8.173518
H   61.100590   95.057411   24.372402
H   82.243805    0.524453   46.494690
H   22.926659   83.962402    9.334532
H   18.420717   51.139698   75.181435
H   27.285187   43.866806   35.736671
H   97.640160   94.112328   24.894203
H   45.299408   93.927376   92.452240
H   90.392822   76.148689   71.443535
H   94.596199   31.718361   99.577171
H   24.172947   90.882431   54.003967
H   69.421120    2.716549   27.741926
H    1.759511   38.164711   74.194901
H   91.442154   72.066910   57.798397
H   39.666637    6.512941   55.307030
H    7.357227   21.911070    2.518840
H   62.129436   56.542709   20.058807
H   60.438927   18.301054   63.834656
H   47.056362   49.100067   10.062052
H   93.923691   41.883461    5.847492
H    3.354440   49.433701    7.711306
H   52.800529   52.354809   86.178940
H   40.662544   94.499786   76.991692
H   15.239112    0.572946   13.538227
H   60.855476   58.560745   29.468758
H   85.414635   63.625858   66.867767
H   58.331928   93.215317   30.447594
H   31.424004   81.831375   43.271873
H   74.640533   13.643360   76.376549
H   47.389091   49.093788   96.043076
H   88.459747   20.506163   89.921913
H   79.942261   60.836189   47.966572
H   76.091469   87.203667   84.714561
H   48.929302   76.934349   34.835815
H   79.230927   33.590866   76.427567
H   93.853668   78.203629   63.451015
H    9.297226   78.406448   59.080349
H   92.054474   19.786743   79.360680
H   80.084999   70.176247   98.349922
H   42.576515   61.620914   59.213642
H   56.984062   41.915325   21.288935
H   15.065265   35.227711   15.557249
H   56.760433   92.032455   49.267780
H   39.362236   55.183712   70.104279
H   22.774664   73.583946   27.333313
H   43.538639   63.634773   51.315735
H   61.240139   92.880554   57.969276
H    3.536216   76.426147   57.807686
H   59.352699   54.082367   45.949837
H   93.546822   81.061661   80.162888
H    5.284765    2.661614   73.139236
H   91.220581   18.746544   48.579094
H   27.229189   90.589378   71.818871
H   30.453930   35.319466   90.998848
H   39.705257   49.151188   96.678871
H   51.716198   42.124928   82.671211
H   65.825920   40.587814   70.715187
H   11.207889   66.867455   89.912842
H   87.491150   92.887070   72.338867
H    4.828867   11.278286   69.552788
H   24.813778   75.717491    1.098837
H   34.592819   72.824188   20.170097
H   32.079742   54.275826   14.859879
H   24.648760   75.440094   71.622955
H   20.629456   20.029253   81.938187
H   24.009060   56.843700   49.576393
H    0.435814   39.981834   43.962200
H   95.072403   54.088650   21.117298
H   23.609837   55.442417   45.528389
H   14.555879   42.134151   12.878517
H   47.526489    9.062816   64.436508
H   19.141006   13.504215   57.189690
H   72.896400   37.065834   32.748543
H   11.559285   25.952015   22.393847
H   39.275688   97.773293   12.395031
H   94.542534   26.374491   40.912086
H   45.538460    5.338954    1.855205
H   11.495195   64.068642   23.722836
H   95.822395   15.253862    6.243249
H   95.360016   61.830635   37.983078
H   35.295765   53.782066   93.505966
H   93.957771   20.986214   71.056175
H    6.965157   54.079323   98.271469
H   50.450687   71.630562   51.433601
H   36.578701   23.151497   59.705612
H    8.095844   80.192444   31.656151
H   72.693863    1.321535   12.349893
H   87.050186    9.110502   44.761040
H   53.606850   82.497482   60.659939
H   94.328522    9.077854   31.741842
H   69.084106   25.128351   82.701340
H   17.665295    6.264692   97.447784
H   20.162088   50.829350   90.473045
H   61.633263   77.328896   58.946384
H   22.150330   37.800289   93.652756
