100
TIME:    0.596, STEP:   596
H   77.017494   67.365089   98.600357
H   84.691383   37.059223   15.595653
H   90.004547   16.782681   16.341850
H   81.576645    8.094336    7.493844
H   89.832733   20.529549   49.544884
H   18.774315    0.564977   37.769398
H   21.734554    1.581410   37.060749
H   73.041870   40.163219   53.472031
H   38.977180   28.990524   62.572403
H   58.552834   24.942909   31.028818
H   44.816559   90.224014   82.339439
H   33.092907   53.565041   50.504845
H    5.351426   25.648727   65.890495
H   25.571308    3.239662    2.594984
H   87.751259   16.786818   22.122774
H   77.560059   59.607655   83.566879
H   76.149040   21.411423   27.619150
H   13.880454   65.717163   78.884079
H   54.544968    3.354601   94.763184
H   76.516212   93.036011   56.848351
H   28.909058   96.883087   41.066788
H   19.496326   44.886589   68.508186
H   77.786568   89.774986   15.297396
H   63.666672   43.829838   62.811905
H    8.267862   38.907230   40.959793
H   43.926167    9.851068   33.310478
H   10.684633   17.701633   11.793081
H   82.252007   84.258453   86.474625
H   24.130692    3.166050   28.998444
H   23.846434   76.088791   30.768425
H   39.546696   75.489021   62.249382
H    3.389136   36.044792   44.089363
H   12.338829   24.875776   51.489342
H    3.284240   19.102722   46.642296
H   65.957314   13.867270   61.019356
H   24.375183   31.304728   18.593580
H   36.963291   82.708839   55.427746
H   39.356308   48.045712   64.498116
H   23.925907   67.785149   85.003036
H    7.057259   56.388393   84.926384
H   94.512283   76.630348   56.383564
H   78.056084   38.606926   30.801107
H   16.374533   67.073975   44.522545
H   41.300339   22.759665   39.005867
H    4.957268    8.376891    7.108538
H   70.339561   74.408257   85.655510
H   42.373280   57.893040   32.716011
H   56.271244    1.519734    5.455025
H   82.451408   83.088425   20.698912
H   38.389812   39.820896   41.979347
H   43.499149   12.103483   59.701008
H   34.096642    8.434265   34.935844
H   21.242434   25.464539   68.256569
H   62.887569   97.478127   58.116169
H   93.311722   10.752989    5.463526
H   94.311966   11.905577   72.337555
H   34.035378   72.349586   12.672091
H   81.679382   20.602196   98.202957
H   37.281891   63.951050   65.729385
H   19.689316   73.598999   46.657921
H   97.296402   50.853218   67.925812
H   77.757935   22.397873   68.389374
H   14.658890   66.510811   92.670021
H   83.965828   45.036575   10.957861
H   55.979836   13.242243   51.065994
H   64.732124   12.644154   81.426033
H   39.750816   68.965851   95.836533
H   39.196083   51.623276   94.694847
H   86.606651    6.961555   22.851940
H   42.459587   78.121239    0.477466
H    3.105835   54.851933   54.999332
H   24.824423   31.745552    0.257406
H   68.131454   88.826302   46.466877
H   17.072525   11.663170   67.786552
H   90.907639   29.491735   46.579029
H   39.749157   45.771049   55.825466
H   21.067554   74.887810    1.580218
H   59.981491   11.749378   47.355808
H   90.119896   51.756687   24.334068
H   70.296555   76.495796   69.575256
H   22.545101   35.447552   15.610312
H   86.041603   48.119888   36.941559
H   55.505993   17.205164   86.665985
H   91.168793   63.162083    8.992104
H   23.309454   11.602963   89.977028
H   37.575420   30.945923   83.171227
H    6.960226   60.018867   51.962704
H   65.549591   57.576759   89.544624
H   68.051460   60.987724   23.324318
H   13.641762   84.761581   45.518871
H   48.413334    5.614538   46.048168
H   22.384920   40.330620   44.879356
H   23.524117   45.488464   65.023003
H    4.832811   49.385147   67.002586
H   46.287876   96.342896   29.781246
H   43.148758   72.195793   36.664894
H   15.294876    1.883765    2.912307
H    9.053466   21.312256   46.499756
H   80.320061   39.419415   95.128120
H   76.255081   63.396542   40.282944
