100
TIME:    1.118, STEP:  1118
H   41.716225   19.494911   98.122452
H   70.171028   65.362968   48.523312
H   98.973236   54.337261   10.212715
H   81.664261   86.587852   78.882561
H   85.157227   62.370155   35.390923
H   10.679794   99.996880   89.464836
H   94.376503   36.830585   77.881828
H   32.013702   85.323166    5.542332
H   26.145424   78.802200   29.712572
H   44.287361   32.436180   51.471214
H   96.261398   11.227571   32.058372
H   13.168240   79.730354   13.348711
H   72.145386   94.066673   14.009097
H   99.725212    1.630245   42.320850
H   94.099434   70.160187   97.030380
H   56.572052   13.947788   40.236801
H   34.180992   55.932114   75.146645
H   25.035370   40.332428   60.787399
H   62.673340   25.254503   22.263521
H   62.394974   82.072617   92.451317
H   97.932938   44.917389   26.900162
H   69.548943   45.575569   24.059414
H   70.817116   85.529594    0.361860
H   15.167252   50.090397   24.041840
H   89.598381   97.508430   44.811279
H   41.532658   94.296951   84.382614
H   65.673431   96.002518   22.151678
H   38.207405    8.623855    3.727376
H   35.480942   50.525517    4.324518
H   43.861889   63.169418   72.266472
H   60.080692   22.300703   20.942970
H   36.348270   21.624001   95.765236
H   49.108692   86.684380   98.515221
H   25.340141   71.264717   24.651354
H   52.982185   74.407875   92.807648
H   69.760590   72.309036   16.797453
H   87.029686   63.592628   96.559456
H   17.782867   38.491589    1.336527
H    0.458231   56.641991   34.972008
H   57.889572    7.519421   25.995642
H   58.837234   94.543831   68.684128
H   31.141716   62.036232   55.325611
H   20.870825   70.204254   82.227211
H    7.967881   31.507322   90.046150
H   59.676369   87.780350   51.779625
H   63.663738   84.240913   87.711586
H   47.885120   86.050491   37.176460
H   56.299122    6.894281   37.753414
H   97.712517   39.856155   99.875473
H   49.337826   47.766071    5.471332
H   43.459324   61.707909   65.204880
H   59.465446   59.997807    0.666140
H   32.070969   28.491272   37.938019
H   50.800549   88.963448   81.151199
H   51.756683   56.515476    9.893110
H   94.965103   11.356981   54.567444
H   67.126709   57.287605   62.318550
H   42.809753   71.306328   84.757889
H   78.450844   86.006378   25.653534
H   85.242218   13.720503   31.810997
H   30.225428   26.579613   27.227814
H   59.231140   17.539169   44.769646
H   50.066750   30.914772   56.858986
H   19.809912   47.876129   96.784889
H   76.698570   71.552116   99.677986
H   32.664680   86.694038   12.290356
H   97.868881   87.014740   21.039612
H    3.137774   81.476425   19.649466
H   12.622200   69.453979   90.113106
H   53.033241    4.374588   99.378937
H   86.530190   19.332335   48.738773
H   81.782608   14.421394   38.476303
H   34.096634   63.003643   33.081547
H    5.583789   78.631012   36.762535
H   16.075562   30.234480   86.149590
H   52.091061   79.226585   20.702770
H   68.462975   29.646006   10.816673
H   84.505997   77.618202   76.183762
H   15.140490   50.227390   30.154556
H   44.696762   48.066162   24.604370
H   32.760326   40.847881   46.808529
H   25.207237   51.528946   93.290604
H   88.536186   25.916979   36.383762
H   27.078070    7.830300   61.313087
H   97.891541   78.952972   39.374825
H   25.560085   50.121761   19.420753
H   41.823418   22.065224   76.853607
H   73.952759   15.784712   84.120399
H   78.883980   31.923124   19.053040
H   67.491470   63.279877   64.181068
H   69.775703   33.800823   57.071850
H   61.007633   79.590538   54.823769
H   57.016808   61.127914    5.406131
H   55.287468   81.048210    2.200164
H   37.263432   49.586601   41.776299
H   86.263779   51.582146    9.702839
H   73.860855   31.840010   72.891815
H   10.970065   25.756775   38.148361
H   55.453056   41.669552   51.400936
H    8.673019   49.987316   90.006294
