100
TIME:    8.769, STEP:  8769
H   24.310242   17.862337   91.117752
H   58.297775   80.043732   31.018093
H   30.501963    4.781325   20.405483
H   82.948456   71.367485   59.505302
H   16.621367   75.631271   27.941139
H   92.034302   91.707985   47.169693
H   93.387154   53.463814   76.200386
H   30.660187   47.231289    3.052615
H   38.069115   43.189133   48.110439
H   35.247566   42.294849   51.062538
H   84.584015   19.081776   95.075172
H   21.152321   63.235256   68.742088
H   84.579559   31.211411   53.667664
H   20.892923   78.047371   24.564701
H   87.114265   86.742531   29.199646
H   48.941147   44.760216    5.136951
H   18.956337   61.970577   71.665016
H   88.582138   68.139442   95.550369
H   81.845352   46.224689   25.346920
H   56.261303   19.594576   13.366846
H   43.911827   83.235687   19.238916
H    3.072914   55.724960   72.516937
H   68.663414   23.308592   81.458557
H    4.290987   41.730927   55.812725
H   15.955026   90.734344    1.300373
H    6.260099   67.593369   65.681076
H    5.917887   77.960953   73.959702
H   92.639191   65.746979   56.630859
H    1.843994   44.684048   42.656120
H   37.234749   73.806595   80.499146
H   61.173000    8.389360   15.603706
H   19.437153   10.235262   87.473839
H   88.033340   26.900253   87.777725
H   48.613556   70.096191    2.328155
H   62.719536   95.733681   58.566929
H   34.911289   72.257950   91.858192
H   20.860535   83.394783   99.428368
H    1.554273   98.473564   41.244728
H   74.930809   90.356712   94.531494
H   37.251770   91.258751   27.960890
H   35.951965   57.065887   48.938320
H   61.210342   75.990799   27.634281
H   86.753204   16.090424   34.866932
H   19.414379   59.834999   38.120495
H   96.010300   85.918861    6.497971
H   64.931816   30.166424   18.786341
H   10.249240    1.725602    9.641493
H   56.722836   85.687851   11.153305
H   21.357658    6.202394   94.674347
H    9.845211   64.203331   70.405174
H   42.899471   23.053318   45.866989
H   31.302950   50.041256   98.405556
H   90.761497   72.854370   93.582565
H   73.619476   64.134979   18.767876
H   42.594398   27.077829   74.927414
H    4.517538    3.309587   94.109329
H   52.167442   36.520836   89.992241
H   73.098083   48.763573   87.685081
H   81.869759    9.289838   38.289513
H   80.354912    1.801705   14.199364
H   12.855574   70.770752   30.695835
H   87.688957   46.321457   98.584450
H   69.389175    8.901893   32.153809
H   45.191700   89.531479   89.060425
H   80.380493   60.479519   12.187428
H   62.655373    6.340543   64.676079
H   84.014938   51.527866   90.428879
H   74.630890   19.045959   85.411514
H   93.946991   19.701912   10.255508
H    8.118834   89.088821   83.244705
H   43.572979   98.756493   56.964333
H   51.160873   60.434959   98.810654
H   35.236450   84.560020   36.913013
H   37.168491   94.430153   82.129707
H   84.883072   41.227108   66.173126
H   32.962097   69.584709    5.887485
H   63.195145   66.822144   46.262871
H   43.958858   77.342323   98.727051
H   82.018425   27.761402   15.518257
H   69.485405   31.330969   65.464043
H   82.483086   20.001688    4.094201
H   99.315445    1.340091   53.388809
H   72.533821   53.766880   65.059273
H   53.441605   62.541603   62.503628
H   25.353546    0.367931   97.697556
H   49.474781   31.153065   50.729233
H   52.816532   65.774422   41.683006
H   97.058678    3.369949    4.656969
H   37.667484    5.928787   56.471687
H   91.041275   48.497017   37.687485
H   82.886284   46.930332   18.647362
H   27.116098   54.991867    0.614437
H   47.563251   90.628990   97.124817
H   94.755508   45.177967   18.078482
H    4.978908   64.257095   17.588675
H   18.205078   49.453369   14.518888
H   66.560356   70.913704   32.875771
H   21.351114   20.350853    2.842131
H   90.978233   74.668861   10.541172
H   83.887543   53.605404   52.995159
