100
TIME:    6.231, STEP:  6231
H   95.945633   50.607689   93.441360
H   28.389576   42.513233   70.991066
H   86.869949   22.186852   50.201992
H   82.522461   75.932831   98.619751
H   39.360550   72.199554   96.758102
H   31.394245   94.457588   95.822868
H   26.403954   82.084801   77.725395
H   30.141983   27.662724   36.084263
H    0.458005   87.208069    7.867068
H    4.569174    5.851717   51.686588
H   20.662582   16.960089   39.548058
H   18.020203   36.018299   49.399391
H   46.453812   84.789223    5.878105
H   46.558678   85.870186   31.422016
H   56.287727   13.449188   51.253040
H   50.989182   66.742958   15.813439
H   23.047279   94.103600   40.620857
H   34.314083   91.638748   83.526405
H   42.315907   39.752060   91.635971
H   24.643677   73.488564   40.568047
H   94.520355   35.901775   88.123116
H   59.752380   52.355728   88.651093
H    2.549617   43.945900   54.074524
H   40.108242   11.369112   44.305408
H    6.728551   92.009888   82.557228
H   18.141909   42.456001    4.482492
H   24.772438   83.462173   23.599325
H    6.788554   47.281715   72.738297
H   46.658180   14.417223   62.629333
H   39.916721   36.622704   78.735397
H   61.286545   80.801094   16.402046
H   59.186375   80.355057   22.429146
H    9.259895   12.592894   59.134644
H   41.376854    2.688820    9.249598
H   25.883896   87.895943    4.149025
H   14.287951   73.467308   99.835915
H   77.432533   76.342407   99.443886
H    6.454973   44.924168   62.144604
H   82.060150   45.653008   40.481804
H   76.302353   28.857685   28.276178
H    9.407238   69.981804   89.145363
H   75.099197   66.038010   98.063866
H   64.911285    0.865715   51.545128
H   81.472992   17.229940   89.970055
H   16.163017   86.048599   89.313461
H   97.694695   81.763626    8.475328
H   90.414352   63.701004   85.276619
H   56.572186   59.547256   54.116886
H   47.166817   16.398918   95.916122
H   56.562519   25.571627   47.860779
H   43.073742   68.080643   19.111431
H    7.947741   85.549393   65.009773
H   38.122250   58.138184   40.982197
H   32.396088    5.535892    6.773741
H   44.673759    4.659513   53.347027
H    1.356462    5.979316   80.508850
H   91.270607    9.753806   48.607445
H   62.082428   88.446220   53.059555
H   81.702347    2.043740   33.128548
H   47.836342    6.722677   86.386131
H   52.757099   88.801529   28.578259
H   77.767555   69.944809   13.420001
H   97.082649   82.090614    6.192078
H   70.912277   75.706009   57.970852
H   79.642654   63.185726   75.834785
H   18.566410   32.511497   14.609145
H   87.643387   63.781483   67.894852
H   49.948021   73.894691   64.080429
H   67.455940    2.066411   69.436371
H   56.621880   61.544968   88.612427
H   24.170513   71.443787   87.403603
H   60.191715   44.730301   12.826056
H    0.717811   10.096581    1.982795
H   93.041969   55.058231   32.928032
H   62.590794   37.524448   73.750015
H   72.964684    6.920974   76.661530
H   32.691006   86.491722    1.249218
H   24.724041   43.290771   58.556000
H   60.310314   35.216312   87.200966
H   93.951370   69.587532   84.115013
H   32.803421   93.744217   52.401081
H    8.866695   84.879684   65.717918
H   11.998864   11.322835   23.352150
H   78.831917   45.359520   94.311974
H   48.931496   59.133766   43.726761
H    7.881914   37.928986   74.482712
H   83.309120   50.308327   20.661612
H   56.240623    6.462404   30.972023
H   84.993515   47.239784   77.229256
H   15.434316   52.917179   46.959496
H   79.020836    9.888340   65.049118
H   39.329800   64.110046   52.249588
H   84.872665   14.479497    0.857375
H   49.468960   91.200752   46.945724
H   48.862175   91.594193   59.267704
H    8.576690   49.675873   45.609772
H   68.014885   25.264227   78.838699
H   26.250055   94.769043   53.792786
H   11.882520   63.709690   23.125389
H   26.242739   18.737724   97.487953
