100
TIME:    8.406, STEP:  8406
H   48.858391   51.150780   91.450089
H   68.323257   60.374447    8.129806
H   24.262346   78.665451   24.666313
H   82.887527   86.322624   79.401802
H   19.874109   46.535221   37.783264
H   97.661865   92.101250   11.220000
H   12.412206   28.951235   47.813313
H   59.191269   15.828261   36.382919
H   46.992348   78.089996   70.960495
H   45.162270   37.082706   36.849617
H   18.349380    4.476344   30.041372
H   35.007980   45.039837   94.581245
H    7.726937   53.181618   89.741989
H   38.865929   79.166237   96.939568
H   82.705269   19.167465   46.655617
H   63.536255   76.509422   35.269806
H   48.146553   37.962040   38.619698
H   80.820877   85.803123    8.133677
H   76.190094   30.995373    6.223695
H   66.040878   27.303396   88.652199
H   65.452766   19.373165   29.091307
H   68.271751   55.243073    3.429736
H   73.509987   26.259462   91.844070
H   38.019226   37.388397   82.771591
H   28.936920   19.522102   98.620155
H    7.972324   78.294601   99.839722
H   37.220055   93.049026   66.759079
H   23.268114   48.803364   44.630745
H   93.950890   11.750271   59.815758
H   23.316254   82.790756   51.641266
H   46.885303   75.837471   44.323112
H   96.517387   20.263912   21.078514
H   62.465427   53.459206   55.075821
H   33.276230    3.363019   17.619894
H   71.753548   23.217827   36.480404
H    3.357202   43.824600   92.999214
H   86.043663   96.688240   70.825279
H   16.557236    5.116457   15.629897
H   90.251518   98.266319   29.708153
H   71.441483   25.241503   99.400757
H   60.760880   44.611580   40.386196
H   91.801910   74.567291    9.102372
H   83.629242   13.912899    8.648161
H   42.592075   53.739395    2.629726
H   27.497879    0.237072   75.435234
H   69.617760   23.244133   17.311598
H    7.411153   81.984688    6.155605
H   56.700680   81.949066   88.693214
H   10.747818   36.265015    9.154408
H    2.225706   58.678135   95.784599
H   42.924397   58.098549   42.039581
H   13.660131   83.724701   22.234997
H   83.234077   70.749573   14.664732
H   82.027588   70.056107    2.750643
H   71.496590   95.266174   71.842224
H    4.065422    3.691427    6.466721
H   29.155914   46.994972   55.468025
H    0.128109   83.044075   97.034813
H   53.238979   93.951500   66.158478
H    4.310452   73.901901   24.523949
H   89.957199   87.653442   58.997051
H    0.572540   49.700211   15.009274
H   44.744267   33.673126   57.045807
H   20.264351   87.554077   98.914200
H   65.973709   89.470673   78.382950
H   84.955147   24.386040   43.212681
H   13.139238   38.979397   72.903671
H   99.705673   98.284843   68.058014
H   75.856812   45.784782   33.023148
H    0.746241   70.854630   84.014618
H   55.102283   23.456306   61.317940
H   81.053345   72.487694   72.201584
H   58.904343    2.517030   46.221203
H   45.158413   17.404518    3.698160
H   67.396637   40.692600   38.650135
H   24.379511   46.319054   30.312571
H   30.227295   98.239014   39.823853
H   26.906816    1.076683   78.676086
H   64.609535   28.827648   11.467215
H   87.287560   51.105034   96.736900
H   75.376625   16.246286   82.398071
H   72.074936   98.984665   83.757851
H   49.573174   47.696201   30.488064
H   28.469097   31.479200   95.659599
H   43.028305   23.075268   32.885490
H   57.830273   17.819450   25.521515
H   28.572588   92.167473   24.373817
H   91.220634   32.417336    8.420868
H   30.134182   26.139341   59.440559
H   23.135221   63.432770   24.711740
H   68.030846   27.330791   10.981467
H    0.257775   27.690647   93.696526
H   24.294163   79.739433   69.053467
H   59.672203   23.155140   93.602501
H   11.255745   96.770676    9.247854
H   88.222702   63.788147   33.268257
H   95.373924   50.081749   53.752037
H   22.051790    2.389547   10.129992
H    8.270627   73.101341   40.947186
H   61.338840   62.919132   87.963364
