100
TIME:    4.241, STEP:  4241
H   30.520256   33.099945   95.263260
H   83.349709   34.677467   45.514793
H   52.653641   79.018745   73.561638
H   82.188446   57.921257    7.698708
H   57.184799   12.692355   50.713257
H   62.260258   96.613503   98.746086
H   30.699951   47.710987   22.104731
H   86.552055   55.501484   18.798954
H   49.376060   78.538483   33.130802
H   58.944954   77.277840   73.764069
H    5.767532   36.888218   31.235226
H   93.972237   36.269905   91.050438
H   73.440170    5.128025    3.615024
H   45.091194   92.003914   79.982300
H   32.088585   91.204437   46.911968
H   31.003735   40.795769   81.000916
H   83.071083   62.478481   59.463310
H   91.763756   88.460701   52.513279
H   11.323368   56.270248   86.794815
H   78.257103   15.753782    5.079610
H   12.609756   34.012531   42.135071
H   68.969147   49.713974   58.117950
H   29.120567   60.130440   11.009618
H   25.006676   87.545807   92.099091
H   77.901886   49.827705   67.860573
H   27.213449    1.278853   91.614220
H   96.372414   66.185806   84.116920
H   74.697998   54.395248    6.955082
H    3.386976   33.868343   56.697639
H   63.611938   85.874718   20.535805
H   82.965721    2.354737   73.844521
H   33.536419   35.337120    6.653419
H   69.088722   58.190437   79.859726
H   57.294022   85.060455   93.085274
H   75.351196   38.333122   82.975555
H   41.300236   17.602543    6.095188
H   86.565994   49.221664   42.639454
H   88.704002   81.339745   21.717487
H   66.060699   89.014214   33.327461
H   63.737640   15.154798   71.708252
H   45.409088    1.704648   42.261822
H   50.464218    2.195312    2.047624
H   47.771053   88.931961    7.806211
H    8.542799   83.845215   95.397461
H   88.780251   64.560822   19.024588
H   23.372959   43.807392    0.387937
H   74.867477   55.478050   66.177040
H   56.465908   39.050888   30.986946
H   88.999557   81.209869   75.300110
H   14.824039   95.284447   87.043434
H   43.221058   60.202385   98.133240
H   11.237494   70.206955   95.647308
H   96.843407   46.599487   56.559727
H   78.479729   38.010025   18.959892
H    3.119681   30.259287   36.418545
H   98.872665    8.072668   48.253159
H   65.111298   67.174416   59.341850
H   10.262103   76.377419    4.316055
H   24.755514   17.961365   85.899467
H   79.156113   53.766331   42.986458
H   27.226488   81.345482   83.734016
H   48.393242   88.467453    3.461102
H   61.983166   17.884762   42.652367
H   34.261078   64.865707   11.995235
H    0.653981   22.121998   90.514626
H   40.813698   31.440041   96.944824
H   47.305405   94.985626   71.817612
H   87.410774   60.084671   68.946922
H   68.274582   45.055115   94.243805
H   16.309401   61.454201   92.802795
H   87.361000    6.841917   11.273548
H   24.277596   10.774556   67.129112
H   30.470858    8.530247   53.011124
H   36.849590   81.001137   51.167961
H   66.645271   34.685322   22.894770
H   25.917025   79.381676   10.564508
H   52.010788   58.965664   66.053185
H   31.230221   73.412865   48.655342
H   64.882225   41.061573   65.004158
H   91.538452   77.980629   55.555260
H   93.863907   73.156754   33.462978
H   59.533379   71.924515   32.148193
H   86.124733   78.048187   33.834332
H   41.923943   75.070503   76.066635
H   45.828186   83.607811   36.634949
H   53.687496   64.835899   36.291229
H   50.401527   94.997665   25.770887
H   24.221144   65.749535   51.638321
H   43.697128   58.039955   93.504890
H   91.377029   34.789703   75.821579
H   97.581757    2.434140   23.023966
H   92.087479   14.446001   14.337080
H   57.309807   54.769249   46.967571
H   57.137348   70.481934   12.767881
H   83.265709   69.847435   13.540887
H   44.210815   28.258366   48.395851
H   25.971542   11.062814   93.284882
H   22.433271   52.347260   88.172600
H    6.681721   55.131580   89.808357
H    2.636828   69.800148   89.191071
