100
TIME:    7.222, STEP:  7222
H   28.927496   59.728798   92.534073
H    1.023324   96.212563   33.475140
H    3.910313   93.484016   38.566029
H   82.688797   35.104889   44.300724
H   30.483606   51.632488   69.887268
H   16.023281   93.383965   93.964859
H   74.464096   49.002453   55.222958
H   52.251335   13.397246   45.094200
H   76.097328   91.927444   45.488087
H   77.501137   20.082216   90.488258
H   28.482178   56.835377   44.089737
H   80.197861   85.692291   78.859413
H   83.226692   24.847050    7.404406
H   97.491417   82.815651    6.836667
H   68.324409   24.928185    3.597672
H   11.142155   80.066406   33.552246
H   43.356880   59.648693   30.835505
H   55.506809   43.416412   49.173714
H   57.747356   81.325363   43.844135
H   97.946152   52.443645    8.039896
H   35.712997   37.244621   61.222820
H   54.760513   53.671295    4.258266
H   89.318092   35.886162   25.720949
H   48.030357   23.224337   70.706039
H   71.284248   13.418793   89.876015
H   13.554958   13.197174   11.260076
H   39.317768   42.267326   43.264782
H   23.170635   93.538261    5.492328
H   68.206261    4.328606   15.784361
H   77.916946   12.095394   57.516747
H    0.285354   69.665558   37.997353
H   21.758602   52.973141   30.687325
H   79.065437   40.086052   48.411751
H   83.248177   11.869456   67.499939
H    1.219914   12.863258   64.445480
H    0.434155   51.087006   96.720894
H   72.482132   40.050903   77.530731
H   65.491798   26.785976   32.077797
H   40.229893   24.060953   44.446609
H   82.961494   36.083752    6.246014
H   41.678635    3.989151   12.491951
H   91.583031   69.924225   48.655270
H   73.439789    6.810543   23.126789
H   18.195156   33.863548   86.864372
H   30.201130   46.947803   74.116035
H   84.901939    0.665343   12.501417
H   98.156540   17.595005   94.788017
H   56.628414   69.754242   15.433958
H   76.135139   34.323818   56.387169
H   77.366943   40.656895   78.570442
H   43.005695   72.405960   29.556580
H   56.117931   93.590530   99.957245
H   58.679874   63.884338   83.426613
H    9.449272   89.369095   50.502823
H   65.768539   91.506279   61.777241
H    2.590751    4.936880   46.772873
H   54.094242   81.158546   42.859810
H   88.290939   94.858284   27.533869
H   59.859764   43.921993   57.052162
H   82.441093   82.895142   58.199730
H   15.269682   42.714813   51.311256
H   42.595039   60.720718   68.583038
H   64.363503   14.466508   38.236237
H   38.961506   81.104370   31.062214
H   18.975586   84.035400   68.122368
H   57.688538   83.246391   73.204849
H    8.133615   98.046661   15.740275
H   81.492729   30.571859   11.455962
H   16.844711   30.859467    7.280536
H   76.700401   11.386823   86.525665
H   92.700615    4.016860   75.518135
H   78.552223   11.801871   85.416084
H   36.103775   61.081455   76.578186
H   71.221703   92.339233   74.046997
H   10.362706   38.949192   48.878544
H   96.387825   70.436424    9.980939
H   22.694637    0.717297   18.824488
H   71.283020   78.492043   13.282796
H    7.835431   32.305431   98.254753
H   45.350998   15.602786   98.739540
H   52.197426    3.997262   11.631818
H   83.229530   91.306442   82.811501
H   74.683586   27.895422   17.729553
H   47.011135   30.161659    3.799734
H    0.678205   97.142540   47.660423
H   85.076462   74.331757   43.300888
H   49.495838   78.254234   67.916176
H   72.178642   27.161879   20.696991
H    5.559466   92.063255   69.124153
H   27.816652   12.142162   82.385437
H   19.576740   63.397186   85.977219
H   12.653765   38.642410   71.131584
H   48.397556   44.215847   77.492928
H   45.244591   51.323204   13.767179
H   31.729500    2.826067   82.040619
H   90.429153   10.543344   94.423042
H   89.354210   82.135590   21.845242
H   24.337191   43.803524   33.900505
H   64.673637   67.988548   40.119427
H   87.797569   93.306503    2.021495
