100
TIME:    4.139, STEP:  4139
H   37.418121   42.453888   95.356644
H   86.166786   29.149927   39.082985
H   50.900360   71.680336   74.758507
H   82.171326   62.123528   13.289863
H   58.098404    4.516604   53.478973
H   63.842335   96.724007   88.645073
H   36.045490   40.823154   14.128198
H   94.569054   46.677494   28.164570
H   51.883415   88.345337   39.551716
H   61.732460   75.813271   69.770355
H   15.255325   32.784000   41.060009
H   97.864784   31.157145   98.311028
H   79.949020   11.296413   13.750320
H   50.141701   92.318306   72.220551
H   30.847775    0.315569   51.815395
H   35.104935   49.717033   89.467712
H   91.273293   55.732281   50.177849
H   89.584801   93.420937   56.050190
H    9.734676   51.990936   81.420578
H   81.005699   17.919897   98.135033
H   18.662582   44.167240   44.903122
H   59.190308   49.578568   66.804199
H   30.482414   60.959999   13.928056
H   34.483574   86.322479   99.674072
H   81.550079   57.917076   67.107277
H   27.678423    4.294280    1.206233
H    5.167856   70.425430   82.093605
H   83.304871   49.634232    3.583344
H    1.168965   24.614319   61.519356
H   59.700714   88.399193   12.427368
H   78.951775   93.207939   81.914436
H   27.096052   38.154976   16.096062
H   61.904171   65.653358   70.670761
H   52.984360   94.408173   97.382484
H   77.886566   46.043510   76.763977
H   32.433445    9.613403    6.416098
H   76.782486   52.957016   34.602222
H   92.920280   83.205864   14.519892
H   70.365692   91.236748   43.212135
H   73.345253   24.703697   63.683437
H   52.380188   98.204651   39.858746
H   59.631393   97.617630   97.255585
H   46.892467   88.320297    0.438715
H   15.055929   82.136292   85.424072
H   97.628365   68.585663   10.295928
H   24.688892   41.861897   99.973335
H   74.070602   49.931053   65.198067
H   56.460461   38.000320   24.675758
H   86.017502   89.657990   79.368530
H   12.684772   93.732719   94.177956
H   43.228840   70.049706   97.057770
H    6.280760   79.671402    2.343176
H   94.728264   46.008057   62.484150
H   80.842339   39.674591   14.459182
H   11.240822   21.320124   35.550854
H   98.745041    8.180059   51.725479
H   58.645115   70.117561   49.640831
H   17.857170   86.009956    6.943447
H   16.711279   13.651421   93.729698
H   85.887527   45.925983   45.887581
H   20.791956   86.089378   91.687202
H   52.013420   89.416855    8.076491
H   55.057980   24.845356   49.646812
H   27.256781   64.310074   14.764843
H   96.605721   30.268566   81.015938
H   47.079750   36.510780   90.913788
H   55.488937   91.458832   66.893173
H   94.456581   54.251297   64.070732
H   63.191269   52.384186    0.640664
H   14.242895   56.323540   93.017578
H   90.599861   13.782084   12.497265
H   32.687943   14.159913   59.661068
H   37.121429   13.575306   55.626648
H   39.095470   87.455513   57.228569
H   61.727421   34.539799   15.162204
H   23.505388   72.844810   17.427673
H   42.749451   67.806442   64.249321
H   26.438076   80.082024   43.021965
H   59.991112   41.361179   63.866341
H   96.540710   83.535408   64.342674
H   91.868607   72.101517   27.366869
H   51.879799   71.258377   40.677246
H   79.671913   76.345490   24.119305
H   34.906929   66.342232   85.383224
H   50.794647   89.987480   46.522736
H   56.035320   61.089050   29.208069
H   43.589180    2.413907   20.907148
H   22.579535   73.915947   52.699005
H   41.580429   63.719246   94.339119
H    0.394818   38.986526   72.174942
H   93.407501   96.926247   20.869913
H   84.540512    6.775496   12.393438
H   50.771385   51.708595   39.079754
H   47.278355   64.295258    5.890584
H   85.029106   78.983482   11.197148
H   35.786041   32.285957   53.664253
H   34.067627    5.209401   99.150940
H   22.058958   51.478790   89.805260
H   11.540764   54.691898   98.351418
H   96.301018   72.418007   99.016602
