100
TIME:    5.196, STEP:  5196
H   65.938148   45.521614   94.388931
H   56.974129   86.427277    5.729526
H   69.071411   47.724731   62.354588
H   82.348740   18.575226   55.353661
H   48.630951   89.239822   24.819569
H   47.447674   95.578880   93.323296
H   80.647316   12.195705   96.786972
H   11.490944   38.121716   31.114399
H   25.900337   86.719101   73.018150
H   32.846245   90.990227   11.158201
H   16.935760   75.314957   39.244503
H   57.526009   84.139397   23.071867
H   12.499466   47.378304    8.721191
H   97.806465   89.060341   52.658829
H   43.702583    5.900031    1.004410
H   92.603333   57.267899    1.727319
H    6.275676   25.646030   46.400726
H   12.180751   41.998043   19.405634
H   26.197884   96.330475   37.107166
H   52.525948   95.472206   70.100471
H   55.938713   38.939392   16.216293
H   60.525925   50.981750   76.790894
H   16.369942   52.363487   83.686111
H   36.274532   98.987518   21.172623
H   43.744781   74.091476   74.913490
H   22.860022   73.052307    1.809972
H   14.021601   26.484909    3.061735
H   94.118752   98.971436   38.525108
H   24.153374   20.513762   11.554790
H    0.231721   62.238701   96.456123
H   20.550007   87.990952   98.287956
H   93.835945    8.953767   18.244270
H   36.356373   88.318581   65.893669
H   97.644287   97.540428   52.851585
H   51.613174   66.142319   41.127838
H   24.316839   92.401360    3.090832
H   78.162598   14.246670   17.889629
H   49.230793   63.867687   89.109077
H   25.747234   68.205193   40.780975
H   73.787682   25.750912   46.845219
H   80.142136   34.470261   64.761208
H   64.633598   45.057541   46.909657
H   55.997028   94.658813   76.785866
H   47.560757   99.857422   88.773483
H    5.941576   26.884438    0.745781
H   11.051479   62.022572    4.270155
H   82.328415    7.413586   75.342918
H   56.516911   48.887085   90.076988
H   16.915619    2.117920   37.203400
H   34.853451    9.817793   20.249504
H   43.148197   68.003189    8.201112
H   57.648140   81.589722   32.954338
H   16.651875   52.136902    1.092873
H   56.361732   22.425117   61.101402
H   27.082039   13.957271   44.542515
H    0.067287    7.068035   15.742706
H   25.655945   39.618492   50.170326
H   39.150284   86.189369   79.717880
H    0.075127   58.312897   12.582867
H   16.137127   27.169849   15.823982
H   87.468018   36.934032    9.275554
H   14.500319   79.578445   60.253578
H   26.816389   52.717575   77.165131
H   99.839027   70.067963   86.068024
H   38.560570   45.848515   79.449730
H   82.147575   83.964592   53.411400
H   70.683624   28.002346   17.925171
H   21.442680   14.701945   14.601447
H   15.869144   76.434914   34.348686
H   35.656876    9.485310   90.791840
H   57.036369   41.864532   99.816780
H   45.532867   79.079742   37.048477
H   68.202393   61.289093   28.522636
H   15.825649   20.564529   94.425377
H   12.691897   36.047817   95.289642
H   48.496559   40.587723   46.304180
H   38.718021   76.192085   82.942299
H   76.097855   10.966267    1.394206
H   10.681083   38.256435   75.656395
H   44.703789   25.967438   73.281219
H   12.549433   83.036667   90.542061
H   31.187851   78.161392   52.291405
H   46.534081   94.014832   24.784292
H    7.626867   56.792160   88.842865
H   99.326469   23.871696   44.058418
H   31.705418   99.911049    2.609109
H   14.183828   25.561401   71.308838
H   39.592911   89.290680   41.707405
H   63.515244    4.867682   85.694221
H    6.941991   95.496750    9.962723
H   36.664421   53.999676   43.191814
H   62.750278   86.268417   32.532219
H   18.526918   83.427132   20.819233
H   49.441101   28.408400   77.157478
H   66.755470   84.303581   35.483677
H   23.089920   90.547760   99.068558
H   50.168114   65.868477   38.362473
H   25.937872   60.478516   72.886421
H   61.187622   59.248211    9.816925
H   61.953068   45.295368   97.193008
