100
TIME:    8.248, STEP:  8248
H   59.543449   65.640221   91.594742
H   72.686966   51.812176   98.167435
H   21.546480   67.298111   26.520889
H   82.861008   92.832024   88.061714
H   21.289904   33.870823   42.067413
H    0.111378   92.272423   95.572884
H   20.692875   18.281847   35.457508
H   71.609756    2.159481   50.890442
H   50.876289   93.281006   80.905411
H   49.477760   34.814060   30.663147
H   33.046158   98.118973   45.260185
H   41.038818   37.120068    5.827798
H   17.802284   62.744408    5.443863
H   46.689262   79.653236   84.916466
H   80.786201   33.280807   54.253532
H   69.888947   90.328636   48.385040
H   60.851936   27.512043   24.236334
H   77.443222   93.491447   13.610312
H   73.728577   24.366634   97.899719
H   70.298508   30.658751   77.894814
H   74.828712   35.103008   33.379482
H   53.124134   55.033325   16.884857
H   75.619514   27.543863   96.364487
H   52.700333   35.498260   94.505386
H   34.587715   32.052696   97.453285
H    8.717403   82.952438   14.708508
H   50.845192   99.616287   63.624783
H   36.599518   41.428455   39.407555
H   90.515373   97.415390   67.284691
H   17.258293   86.701218   39.080536
H   40.666416   61.668877   56.823570
H   86.541130   24.628826   35.705376
H   51.335560   65.019417   40.841934
H   26.599991   17.842598   24.275755
H   75.685707   35.180656   26.866987
H   89.622513   31.448332   93.495857
H   70.888817    2.474605   58.375454
H   23.087730    8.008017    4.480695
H   96.920036    1.708785   45.019615
H   86.323898   40.033234   86.970215
H   71.559250   39.190697   36.663784
H    5.117360   73.947693    1.036248
H   82.269501   12.965118   97.235695
H   52.680439   51.086212   87.180939
H   41.202774    6.470317   61.914787
H   71.657372   20.231125   16.669699
H    6.175928   73.392281    4.638293
H   56.691036   80.321716   78.917061
H    6.129700   49.350113   15.457375
H   98.908936   56.273273    6.831758
H   42.935246   73.352242   40.373657
H    5.981110   98.385315   32.607208
H   79.957680   69.833435   23.841177
H   85.687317   72.633347   95.778580
H   84.076607   81.420441   70.499359
H    3.868633    3.857628   11.845413
H   19.139877   51.553963   40.440956
H   11.892940   97.965065    1.104491
H   40.777096   87.275749   78.287659
H   14.736642   61.758030   29.017845
H   79.990585   95.001831   71.316200
H    6.180305   51.170853   22.158203
H   34.017017   44.454620   67.880341
H    9.414749   86.693390    3.203951
H   59.702164    2.089449   63.669296
H   94.661385   32.240715   33.870487
H   25.816294   33.517529   65.275620
H   10.620052   89.248833   60.504700
H   67.982849   57.137657   42.933105
H   97.537331   62.918148   84.349731
H   60.120548   34.207184   63.212898
H   94.064911   77.733788   60.620029
H   69.206070   10.332422   50.272701
H   48.636120   27.404282   13.085627
H   59.785461   40.459949   26.670431
H   20.643839   36.192116   40.943481
H   15.877086   11.914543   37.021194
H   19.484293   11.407345   69.948669
H   57.033218   29.291744    9.703951
H   95.036156   59.711906   10.348614
H   72.283455   14.611703   72.954620
H   60.218567   97.960037   96.976753
H   39.578835   45.053867   15.440503
H   17.599003   17.958334   10.090464
H   50.721451   32.958706   48.201866
H   61.467098   12.015838   14.549521
H   18.020128    3.655424   16.839790
H   88.679558   45.061241   10.059067
H   26.854771   34.936272   60.732796
H   37.104733   69.932632   19.063631
H   61.564838   18.799862    7.644781
H   88.567375   15.807974   90.685326
H   14.166075   74.999626   56.835083
H   44.402840   13.569448   82.948784
H   13.987885   10.923439    5.617358
H   75.172562   70.027527   41.429115
H    7.915171   41.014397   62.838676
H   22.356768   94.571251   13.302118
H   15.797120   72.419060   54.181759
H   51.525318   66.973923    3.183512
