100
TIME:    4.482, STEP:  4482
H   14.223080   10.999067   95.042618
H   76.693672   47.737640   60.711517
H   56.796196   96.357536   70.733742
H   82.228897   47.992363   94.488899
H   55.026184   32.009567   44.178574
H   58.522213   96.352409   22.613379
H   18.069111   63.985180   40.951244
H   67.609932   76.351410   96.670998
H   43.451820   55.367386   17.960672
H   52.358788   80.738243   83.200195
H   83.350311   46.585438    8.020920
H   84.775139   48.350060   73.895515
H   58.061417   90.554298   79.667969
H   33.158134   91.261086   98.321335
H   35.019447   69.677124   35.326420
H   21.312950   19.717094   60.996033
H   63.691353   78.419693   81.402489
H   96.913643   76.738029   44.157177
H   15.077042   66.380737   99.492767
H   71.762871   10.635805   21.487986
H   98.308495   10.019543   35.594872
H   92.074051   50.033905   37.594559
H   25.902870   58.170403    4.114093
H    2.615126   90.436218   74.201340
H   69.282135   30.714584   69.640419
H   26.114836   94.155487   68.950600
H   75.591606   56.167217   88.897499
H   54.363026   65.644318   14.921641
H    8.627671   55.733974   45.305153
H   72.853165   79.910027   39.694344
H   92.449654   23.965420   54.777367
H   48.753368   28.679245   84.342873
H   86.063454   40.557457    1.570910
H   67.476654   62.974182   82.932060
H   69.360764   20.115440   97.651932
H   62.250202   36.478474    5.336961
H    9.681471   40.395981   61.629383
H   78.742012   76.930580   38.723476
H   55.887630   83.762932    9.973364
H   41.039085   92.593224   90.668762
H   28.938328    9.973355   47.939678
H   28.804520   13.011954   13.369680
H   49.846928   90.377167   25.213739
H   93.153427   87.882965   18.961302
H   67.874413   55.052879   39.647846
H   20.263744   48.404102    1.367650
H   76.750290   68.584190   68.490105
H   56.478779   41.533112   45.898674
H   96.045395   61.249371   65.687469
H   19.878582   98.950783   70.186378
H   43.202671   36.935677    0.674183
H   22.948992   47.843548   79.827271
H    1.841496   47.996887   42.561825
H   72.897484   34.077080   29.593922
H   83.931213   51.380253   38.468678
H   99.174210    7.819094   40.048950
H   80.390762   60.220512   82.262886
H   92.316788   53.618187   98.108261
H   43.761993   28.144917   67.398628
H   63.251583   72.290253   36.131844
H   42.429016   70.136864   64.942665
H   39.839684   86.224258   92.557220
H   78.344002    1.439057   26.126274
H   50.811073   66.178528    5.451359
H   10.219903    2.873672   12.958133
H   26.008614   19.459175   11.194264
H   27.969610    3.318079   83.452805
H   70.763329   73.867447   80.468117
H   80.284866   27.738388   79.129822
H   21.192026   73.575195   92.295319
H   79.708397   90.444336    8.382217
H    4.406244    2.775971   84.773125
H   14.756544   96.609535   46.831306
H   31.543148   65.751091   36.848289
H   78.265755   35.029156   41.164394
H   31.615107   94.826622   94.348129
H   73.892136   38.076374   70.315254
H   42.552837   57.654598   61.965576
H   76.440193   40.353680   67.692314
H   79.719391   64.856102   34.792839
H   98.578293   75.650009   47.867229
H   77.615456   73.498428   11.995302
H    1.369888   82.074158   56.787754
H   58.503357   95.693184   54.054741
H   34.093704   68.534279   13.272683
H   48.140186   73.687325   53.026932
H   66.497368   77.475006   37.262665
H   28.099848   46.454384   49.132195
H   48.698349   44.621239   91.533821
H   70.070358   24.873680   84.437653
H    7.444620   15.447342   28.113443
H    9.919887   32.569870   18.929193
H   72.758430   62.000793   65.604477
H   80.430344   85.099472   29.017252
H   79.099251   48.259941   19.078289
H   64.116409   18.742256   35.947960
H    6.842572   24.893230   79.424881
H   23.317678   54.399231   84.315041
H   95.201111   56.170437   69.623283
H   17.605883   63.614933   65.975845
