100
TIME:    3.339, STEP:  3339
H   91.519684   15.817898   96.089066
H    8.389454   85.780212   88.623154
H   37.149139   14.125129   84.145714
H   82.037048   95.082512   57.142414
H   65.263931   40.393078   75.170868
H   76.244759   97.590706    9.417982
H   77.972572   86.802773   51.567085
H   57.447479   77.467453    1.617361
H   71.548943   65.262146   89.908684
H   83.595253   64.326454   38.442131
H   89.669388    0.594647   18.120440
H   28.400215   91.057648   55.255196
H   30.868965   59.693253   93.259758
H   89.753517   94.784126   11.338810
H   21.115719   71.774429   90.269478
H   67.270462   19.688080   55.875343
H   55.604652    2.820532   77.350693
H   72.494957   32.325218   83.786316
H   97.274147   18.427706   39.273281
H    2.562584   34.908512   43.667259
H   66.135727   23.809204   66.614059
H   82.493530   48.516556   34.931564
H   41.163567   67.466347   36.818512
H    8.812271   76.727753   59.091434
H   10.162778   21.359665   61.199074
H   31.348238   28.118921   76.206108
H   74.153809    3.677838   66.224464
H   50.806240   12.292923   77.142296
H   83.773865   52.032028   99.336739
H   29.024742    8.199609   48.829254
H   47.466633   21.470388   45.207893
H   76.583748   60.255806   90.156120
H    5.551561   24.184910   98.600441
H   19.181934   67.723335   31.083427
H   97.771820    6.517308   28.050217
H   62.868237   46.781376    9.161332
H    0.052986   82.253891   71.565483
H   25.985054   97.842094   58.064297
H    4.130950    8.666868   20.738237
H   48.696583   99.596741    0.739393
H    7.055180   70.751038   21.011091
H   31.530876   61.716362   59.670135
H   40.001598   83.522934   42.652912
H   66.141342   68.732971    7.204029
H   67.021111    0.153021   41.838436
H   35.009937   26.603107   96.726265
H   67.820602    6.423429   57.514694
H   56.417736   29.761404   75.176338
H   62.629189   55.912666   11.279283
H   95.907707   81.562309   50.129597
H   43.289875   47.284836   88.622711
H   67.401855   53.905556   54.863857
H   78.138908   41.369385    8.944927
H   99.372612   52.730011   79.157684
H   74.936996   51.205887   28.746893
H   97.744064    9.022345   78.959366
H    7.930759   93.201057   73.554100
H   77.427483   61.560318   27.551296
H   53.615746   79.849365   55.147167
H   38.678925   84.434616   68.641487
H   70.327309   23.293842   54.060223
H   80.406975   96.863144   44.276108
H    0.744527   79.435600    4.505234
H   72.323540   59.957832   36.487255
H   64.855232   94.163307    6.515378
H   96.225258   76.281288   43.611542
H   19.674377   63.797741   28.269827
H   49.718254    8.497779   25.826109
H   23.317001    9.867073   50.817219
H   98.034729   16.084269   94.702148
H   16.003654   68.214195   22.095043
H   98.651840   40.710312    1.087218
H   89.282074   53.144398   76.136955
H   56.710217   38.080856    4.762774
H   23.158606   33.398441   54.517002
H    4.591376   21.570848   71.256226
H   70.115303   37.144257   50.101368
H   88.852615   32.391155   98.839233
H   21.630514   43.711033   54.936897
H   35.774574   27.104229   33.263290
H   76.219193   63.825146   79.553192
H   91.852936   66.033768    7.572104
H   29.057348   62.990997   47.923100
H   79.867523   97.884125   58.449898
H   89.747284   40.028522   24.073708
H   74.446167   31.700653   73.653458
H   90.158974   60.580421   82.759659
H    9.704168   37.965836   61.018097
H   24.977577    8.262386    0.882378
H   71.126801   71.901321   43.578224
H   60.668243   53.727016    3.975380
H   25.344976   46.616943   97.148415
H   99.491104   27.703466   77.214439
H   69.955544   15.767265   51.949493
H   98.859673   50.642994   92.814293
H   69.709290   63.877754   94.985054
H   97.568604   59.298931   45.160835
H   19.123167   44.667267    2.609526
H   49.651115   51.243412   65.361641
H   46.608334   92.950233   76.083710
