100
TIME:    8.195, STEP:  8195
H   63.127678   70.500603   91.643265
H   74.150742   48.940022   94.825821
H   20.635462   63.485016   27.142994
H   82.852112   95.015556   90.966621
H   21.764822   29.622639   43.504501
H    0.933344   92.329842   90.324318
H   23.470612   14.702876   31.312840
H   75.775452   97.574211   55.756889
H   52.179131   98.376724   84.241364
H   50.925362   34.053059   28.587780
H   37.976089   95.986389   50.365204
H   43.061821   34.463436    9.600285
H   21.181908   65.952423   10.710802
H   49.313545   79.816597   80.883400
H   80.142464   38.015030   56.802200
H   72.019913   94.964195   52.784454
H   65.113869   24.006664   19.411535
H   76.310211   96.070442   15.447411
H   72.902878   22.143070   95.107224
H   71.726700   31.784281   74.286324
H   77.973808   40.379475   34.817783
H   48.042973   54.962967   21.398300
H   76.327141   27.974707   97.880829
H   57.625008   34.864227   98.441406
H   36.483345   36.255997   97.061867
H    8.967297   84.514877   19.696087
H   55.415649    1.819453   62.573048
H   41.071312   38.954594   37.655472
H   89.362953   92.606766   69.790092
H   15.226154   88.012955   34.867126
H   38.580334   56.916458   61.016762
H   83.194664   26.093006   40.611855
H   47.602123   68.897209   36.067276
H   24.360455   22.699745   26.508417
H   77.004723   39.193504   23.642233
H   85.015259   27.296991   93.662453
H   65.805229    4.415705   54.199245
H   25.278339    8.977970    0.740739
H   99.156944    2.863432   50.155769
H   91.316101   44.995110   82.800476
H   75.181488   37.372299   35.415127
H    9.583999   73.739853   98.330376
H   81.813385   12.647192   93.407234
H   56.064510   50.196220   81.998688
H   45.799919    8.561214   57.379105
H   72.341545   19.220432   16.454378
H    5.761612   70.510017    4.129308
H   56.687801   79.775833   75.637718
H    4.580554   53.739418   17.571587
H   97.796143   55.466579   10.537581
H   42.938885   78.468987   39.814835
H    3.405199    3.303271   36.086304
H   78.858635   69.526123   26.919352
H   86.914948   73.497864   93.439774
H   88.296486   76.775986   70.048904
H    3.802622    3.913379   13.649658
H   15.780061   53.083244   35.400230
H   15.839372    2.970306    2.469730
H   36.596844   85.036415   82.356308
H   18.233971   57.684124   30.525291
H   76.647354   97.466797   75.448738
H    8.061378   51.664169   24.556248
H   30.418724   48.071198   71.514709
H    5.775295   86.404678    4.643010
H   57.598289    6.322622   58.733704
H   97.917274   34.875511   30.736713
H   30.068724   31.685349   62.716839
H   14.281210   86.217766   57.970993
H   65.341583   60.945900   46.257332
H   96.460930   60.256260   84.462143
H   61.803890   37.813652   63.848549
H   98.429550   79.493553   56.735363
H   72.661713   12.954077   51.631748
H   49.802692   30.758633   16.234564
H   57.232346   40.381908   22.651922
H   19.390734   32.795105   44.509514
H   11.063508   16.501984   36.081062
H   16.994459   14.872692   67.021118
H   54.491829   29.447422    9.112476
H   97.635368   62.599022   14.914522
H   71.245872   14.063394   69.786880
H   56.241707   97.616333    1.410863
H   36.226303   44.167515   10.392903
H   13.952706   13.422911   14.931133
H   53.302063   36.274036   53.339638
H   62.687046   10.069057   10.868955
H   14.480378    7.509007   14.312553
H   87.827171   49.302551   10.608589
H   25.754715   37.887276   61.166267
H   41.790836   72.112930   17.169012
H   59.395863   15.938218    6.525468
H   84.645912   11.821915   89.675240
H   10.768761   73.409691   52.736511
H   39.280838   10.353993   79.375069
H   14.904362   15.671005    4.399533
H   70.794983   72.120483   44.166618
H   12.122009   37.972816   65.886726
H   22.459070   91.948586   14.366186
H   18.321922   72.190193   58.621204
H   48.233440   68.334183    8.289243
