100
TIME:    6.430, STEP:  6430
H   82.487869   32.358330   93.259171
H   22.894272   53.297359   83.537880
H   90.292084   36.503426   47.865406
H   82.555862   67.734283   87.712646
H   37.578125   88.150284   91.362244
H   28.307644   94.241997   15.530361
H   15.974339   95.521309   93.287453
H   14.500977   44.878155   17.812130
H   95.566200   68.075089   95.340797
H   99.133217    8.709299   59.478245
H    2.152094   24.967337   20.379696
H   10.424400   45.993198   35.234123
H   33.755173   72.755577   86.104424
H   36.705238   85.256813   46.566555
H   58.704781   95.673546   41.683514
H   42.988007   49.337746   99.294434
H    7.044728    7.266178   58.736610
H   38.569736   81.955353   76.627480
H   45.414654   48.100914    2.120717
H   19.282738   69.261757   54.116905
H   82.711411   16.090137   82.721184
H   78.830704   52.619904   71.704391
H   99.892433   42.327446   48.381088
H   21.617908   13.749727   29.525377
H   99.611397   76.229202   84.026894
H   17.234755   36.572784   85.768776
H    7.612423   75.190750   27.548292
H   89.997177   56.570366   79.315353
H   50.985191   32.471539   53.222260
H   47.547443   31.697502   94.555557
H   69.118202   98.646599    0.657868
H   71.751404   74.855957    4.006748
H   23.277317   98.033440   77.062134
H   49.784920   84.451645    0.866450
H   20.931366   72.828835   16.256754
H   31.586164   89.053658   99.210396
H   96.519966   69.054810   15.124021
H   98.229958   41.281887   76.188210
H   73.661194   41.316887   21.197424
H   57.558567   10.227886   43.933704
H   95.807175   76.810890   93.833717
H   58.328613   66.818390    8.223256
H   66.623871    2.059489   65.918602
H   68.765244   20.570089    9.427449
H   98.901237   78.196213    6.342430
H   95.125816   85.559250    9.283796
H   91.969040   74.523087   87.186577
H   56.582813   61.596893   66.429886
H   52.983231   99.918251   87.978714
H   60.739223   28.601294   33.946022
H   43.060078   48.868713   21.208893
H   17.620876   67.084305   51.946754
H   42.250370   59.292053   29.423933
H   27.788200    2.288735   15.554538
H   28.829155   22.099133   55.039875
H    1.604316    5.769987   73.734421
H    3.886905    4.011407   67.533943
H   47.264313   69.653328   47.933945
H   97.398010   10.452945   17.851921
H   34.705002   22.019024   80.726097
H   65.309990   79.546280   13.063194
H   70.704659   68.092545    4.415567
H   10.592714   68.511391   92.546051
H   84.576523   76.790039   52.567402
H   87.540588   47.291172   94.366539
H    6.342224   22.618584   26.375624
H   71.677475   70.662140   77.502335
H   36.201790   85.275490   73.593781
H   77.373146   87.767548   56.955502
H   60.652832   71.553642   88.193390
H   17.850800   57.904037   85.016914
H   43.783993   38.125916   27.395939
H   87.742813    0.253769   96.880920
H   88.660301   42.464352   21.104605
H   72.185905   37.808361   88.835342
H   77.668221   19.675045   63.270653
H   50.764248   69.268700    4.778569
H   34.073421   30.277956   69.545845
H   69.853447   34.631786   89.420647
H   84.192062   58.747231   66.970940
H   36.697731   95.802963   64.295044
H   23.799364   86.170334   49.070248
H   24.586670   14.650458   42.304459
H   92.523491   62.388206   76.135490
H   39.242027   46.685638   24.435883
H    3.301545   45.239357   88.301819
H   96.599876   35.839409   30.150671
H   59.441093   90.538696   28.908722
H   89.123154   36.159599   75.601692
H   97.839859   44.729259   54.072495
H   87.164726   20.633751   69.251633
H   54.053783   79.076950   56.040657
H   97.628998   20.450771   16.246347
H   68.700996    3.273795   60.364014
H   45.421822   73.769943   63.840672
H   25.013260   41.817413   35.331223
H   52.219017   36.684052   67.394135
H   25.865938    4.615995   49.798271
H    2.402837   64.568504    6.456528
H   38.602810   13.631092   78.318535
