100
TIME:    5.147, STEP:  5147
H   69.251869   50.015175   94.433792
H   58.327431   83.772263    2.639886
H   68.228775   44.199417   62.929928
H   82.340515   20.594151   58.039703
H   49.069839   85.312256   26.148010
H   48.207691   95.631966   88.470848
H   83.215599    8.886938   92.955109
H   15.342247   33.882740   35.613567
H   27.104851   91.430237   76.102333
H   34.185341   90.286659    9.239279
H   21.493622   73.343323   43.964237
H   59.396332   81.683266   26.559610
H   15.626266   50.341362   13.590088
H    0.232682   89.211372   48.929771
H   43.106682   10.276837    3.359856
H   94.573471   61.553604    5.794841
H   10.216026   22.405209   41.940063
H   11.132970   44.382023   21.104177
H   25.434689   94.275101   34.525799
H   53.845978   96.512978   66.764320
H   58.846443   43.817635   17.546230
H   55.828247   50.916702   80.963699
H   17.024162   52.762001   85.088013
H   40.827534   98.401337   24.811771
H   45.497345   77.977173   74.551613
H   23.083391   74.500565    6.417705
H   18.246931   28.521778    2.089423
H   98.253426   96.684280   36.905258
H   23.087929   16.068239   13.870918
H   98.352814   63.451439   92.560707
H   18.621552   83.596832    2.164680
H   90.742043   10.307536   22.780449
H   32.904705   91.903709   61.479362
H   95.573959    2.030970   54.915932
H   52.831146   69.846329   38.144218
H   20.057489   88.563515    3.244948
H   73.462677   16.041290   14.028655
H   51.255886   64.764214   85.651054
H   27.815693   69.272881   45.529495
H   78.403114   30.338120   42.989803
H   83.490997   32.789101   63.606792
H   69.037437   42.858238   44.607922
H   55.574963   94.364975   73.246346
H   50.689426   99.034973   83.982346
H   10.191954   28.817566   96.552757
H   11.683737   61.087971    4.070945
H   81.945602    4.748712   74.872627
H   56.514294   48.382401   87.045143
H   15.483437    6.175992   39.158211
H   33.825764    9.071981   23.676498
H   43.151936   72.733765    7.684557
H   55.266777   86.136368   36.171234
H   15.635436   51.852783    3.938752
H   57.496338   23.224762   58.939110
H   30.983624    9.663060   44.125683
H    0.006244    7.119578   17.410782
H   22.549706   41.032356   45.510033
H   42.798965   90.816765   80.979965
H   96.210365   56.242569   16.344635
H   19.370472   23.403408   17.217659
H   84.377106   39.212589   13.095922
H   16.239237   80.034531   62.470825
H   23.489771   56.061203   80.525208
H   96.474464   69.801041   87.398148
H   36.615479   49.762249   74.886635
H   85.157738   86.400536   50.514137
H   74.614929   26.308289   15.559322
H   24.827431   11.899451   12.258964
H   13.426939   79.955742   37.422028
H   34.664330    7.020692   90.895020
H   58.592293   45.198441    0.404552
H   49.572960   80.705948   33.460732
H   71.397232   63.712700   29.779114
H   16.904179   23.665722   97.336845
H   10.329507   35.977909   91.575165
H   47.338028   37.447090   49.601078
H   34.268948   80.438911   82.075737
H   73.795746   14.170265   98.688194
H    8.331403   38.400364   75.109840
H   47.106628   28.636402   77.502625
H   11.590626   82.529739   87.613396
H   27.511131   77.841385   56.388695
H   43.434570   93.195374   20.117643
H    4.255762   52.599167   93.318481
H    1.712409   26.936813   48.808434
H   32.833294   98.111382   99.206360
H   10.911230   29.124100   68.972336
H   38.804108   93.213760   42.216949
H   62.498398    7.595875   86.094978
H   11.274333   97.512497    8.211187
H   34.659142   51.354008   42.157024
H   59.124775   82.583099   31.598738
H   15.385930   81.957191   17.029987
H   44.705315   25.435869   73.853477
H   67.602592   88.692467   34.357670
H   19.042725   92.482758    1.599512
H   54.057549   63.056454   41.180481
H   25.758055   60.061310   73.670738
H   63.521881   59.036991   13.921318
H   58.909634   46.552593    1.913232
