100
TIME:    3.040, STEP:  3040
H   11.739702   43.237785   96.362808
H   16.707191   69.570084   69.762283
H   32.009621   92.614243   87.654182
H   81.986862    7.401613   73.531433
H   67.942047   16.426907   83.278214
H   80.880135   97.914635   79.807610
H   93.644341   66.614250   28.184898
H   80.948288   51.599865   29.071171
H   78.898933   94.009689    8.729282
H   91.766472   60.033257   26.732790
H   17.481628   88.563675   46.921001
H   39.813004   76.070236   76.538689
H   49.887306   77.783081   22.977955
H    4.558265   95.705727   88.585121
H   17.478363   98.482590    4.641459
H   79.292328   45.839630   80.694679
H   79.648384   83.042877   50.131542
H   66.107628   46.865517   94.152039
H   92.615959    5.883496   23.521669
H   10.617462   41.257061   23.309931
H   83.878815   53.576439   74.730530
H   53.828110   48.119629   60.394196
H   45.155647   69.898094   45.372971
H   36.592590   73.141724   81.297035
H   20.856163   45.072624   58.991074
H   32.719776   37.027462    4.232553
H   99.935806   16.107367   60.291950
H   76.034996   98.336647   67.260185
H   77.272476   24.904428   13.470026
H   17.560627   15.600356   25.059597
H   35.697979   94.658539   68.863823
H   57.704628   68.517235   17.836006
H   84.491180   46.061104   71.664162
H    6.547996   95.124977   43.680069
H    5.204472   29.119568    9.844048
H   36.870846   23.292395   10.189927
H   71.373878   93.203598   48.005367
H   38.342255    3.313626   36.965580
H   16.752319   15.180803   49.713455
H   76.858902   27.588377   77.215736
H   27.488943   60.491032   13.966945
H   58.403282   48.296127   45.622574
H   37.426136   81.729919   21.056316
H   85.234894   63.723351   77.968590
H   92.958229   11.949583   16.251917
H   38.867428   20.900135   95.512672
H   65.484665   90.162750   54.642677
H   56.401768   26.682940   56.675896
H   53.889954   80.676506   23.206705
H   89.639000   77.013618   71.042023
H   43.312687   76.151001   85.470108
H   52.870686   81.650208   74.492271
H   71.938637   39.635681   26.310478
H    6.296230   57.609474   65.963287
H   98.743484   25.001869   26.204508
H   97.369949    9.337057   89.138031
H   88.974800    1.828604   45.116798
H   99.691887   89.796875   35.253250
H   30.035095   67.216141   78.101372
H   58.408928   61.453663   77.145760
H   51.466438   37.197826   77.373001
H   91.019066   99.646194   57.805840
H   80.446465   99.838554   25.008560
H   51.791481   58.331345   44.606007
H   52.986370   18.043945   78.670921
H   14.593039   91.145515   25.932720
H   43.663948   53.461674   13.833323
H   70.372139   91.397522   11.532180
H    8.414284   31.351311   69.570198
H   91.975891    1.045091   95.331757
H   25.499104   88.557838   25.682213
H   23.305552   50.633484   79.196869
H    8.777540   67.933952   83.801750
H   63.291920   57.003319   22.532310
H    8.742919   32.971859   31.851101
H   97.523033    2.407638   91.376312
H   42.967388   63.060844   44.813572
H   74.805054   51.943226   82.327988
H    7.292909   44.589291   51.599518
H   50.438057   43.389294   59.022476
H   70.370224   60.731853   61.682362
H   69.419724   64.081070   32.575050
H   10.139626   57.999756   19.444736
H   59.296284   72.298309   85.759827
H    4.306046   58.731991   53.058495
H   81.326233   20.717869   52.890072
H   70.189445   82.320152   68.502228
H    4.892000   61.904633   64.127449
H   18.771603   24.909628    3.328635
H   97.561218   84.201492   32.890854
H   48.431946   37.583042   97.660965
H    3.220536   24.131266   91.450005
H   80.324554   18.731550   54.092308
H   41.055630   97.630730   31.790615
H    4.029543   77.425293   85.943352
H   45.013138   75.685188   10.429085
H   21.301434   42.139828   62.356438
H   18.025915   42.121460    7.393749
H   63.894859   49.954540   90.404533
H   28.037172    0.623984    4.886287
