100
TIME:    8.251, STEP:  8251
H   59.340569   65.365105   91.591995
H   72.604111   51.974751   98.356583
H   21.598047   67.513947   26.485676
H   82.861511   92.708427   87.897285
H   21.263021   34.111286   41.986069
H    0.064852   92.269173   95.869972
H   20.535645   18.484430   35.692112
H   71.373962    2.419014   50.614983
H   50.802544   92.992569   80.716583
H   49.395821   34.857136   30.780621
H   32.767105   98.239685   44.971222
H   40.924309   37.270443    5.614260
H   17.610985   62.562836    5.145736
H   46.540718   79.643990   85.144753
H   80.822639   33.012833   54.109268
H   69.768326   90.066246   48.136017
H   60.610695   27.710461   24.509436
H   77.507355   93.345467   13.506325
H   73.775314   24.492496   98.057785
H   70.217667   30.595041   78.099068
H   74.650688   34.804340   33.298069
H   53.411747   55.037308   16.629379
H   75.579460   27.519476   96.278656
H   52.421577   35.534149   94.282593
H   34.480415   31.814774   97.475441
H    8.703259   82.863998   14.426188
H   50.586487   99.491592   63.684315
H   36.346397   41.568485   39.506729
H   90.580605   97.687576   67.142876
H   17.373318   86.626968   39.319031
H   40.784496   61.937881   56.586220
H   86.730553   24.545948   35.427650
H   51.546886   64.799919   41.112198
H   26.726757   17.567665   24.149378
H   75.611046   34.953514   27.049520
H   89.883301   31.683313   93.486427
H   71.176567    2.364731   58.611843
H   22.963734    7.953114    4.692390
H   96.793419    1.643427   44.728889
H   86.041321   39.752373   87.206238
H   71.354218   39.293625   36.734463
H    4.864532   73.959457    1.189402
H   82.295319   12.983114   97.452400
H   52.488888   51.136589   87.474274
H   40.942558    6.351965   62.171524
H   71.618645   20.288334   16.681887
H    6.199379   73.555428    4.667104
H   56.691219   80.352615   79.102684
H    6.217387   49.101662   15.337698
H   98.971924   56.318935    6.621997
H   42.935040   73.062614   40.405289
H    6.126916   98.106949   32.410278
H   80.019890   69.850830   23.666941
H   85.617828   72.584412   95.910965
H   83.837746   81.683334   70.524857
H    3.872370    3.854472   11.743286
H   19.330055   51.467400   40.726280
H   11.669557   97.681755    1.027213
H   41.013714   87.402504   78.057358
H   14.538676   61.988628   28.932518
H   80.179825   94.862305   71.082283
H    6.073830   51.142929   22.022465
H   34.220699   44.249908   67.674622
H    9.620754   86.709732    3.122495
H   59.821251    1.849835   63.948669
H   94.477089   32.091576   34.047871
H   25.575590   33.621235   65.420456
H   10.412817   89.420403   60.648117
H   68.132355   56.922096   42.744942
H   97.598259   63.068821   84.343369
H   60.025265   34.003044   63.176918
H   93.817856   77.634178   60.839916
H   69.010468   10.184027   50.195774
H   48.570087   27.214413   12.907385
H   59.929977   40.464367   26.897894
H   20.714769   36.384399   40.741631
H   16.149555   11.654877   37.074409
H   19.625227   11.211193   70.114380
H   57.177071   29.282932    9.737431
H   94.889030   59.548485   10.090166
H   72.342186   14.642739   73.133926
H   60.443672   97.979492   96.725761
H   39.768600   45.104038   15.726216
H   17.805397   18.215059    9.816463
H   50.575378   32.771046   47.911049
H   61.398045   12.126033   14.757855
H   18.220491    3.437295   16.982841
H   88.727806   44.821167   10.027962
H   26.917038   34.769234   60.708260
H   36.839481   69.809219   19.170874
H   61.687611   18.961842    7.708138
H   88.789345   16.033600   90.742500
H   14.358376   75.089622   57.067078
H   44.692764   13.751454   83.151070
H   13.936008   10.654709    5.686291
H   75.420349   69.909058   41.274162
H    7.677048   41.186562   62.666145
H   22.350977   94.719704   13.241888
H   15.654212   72.432014   53.930470
H   51.711651   66.896927    2.894508
