100
TIME:    9.026, STEP:  9026
H    6.930839   94.294563   90.882462
H   51.199844   93.969009   47.223667
H   34.919544   23.270260   17.388863
H   82.991592   60.779411   45.417282
H   14.318460   96.230957   20.973598
H   88.050049   91.429558   72.621582
H   79.916771   70.817680   96.298119
H   10.460495   69.464767   79.456703
H   31.751564   18.479168   31.932261
H   28.227537   45.984989   61.125130
H   60.678497   29.421814   70.318687
H   11.342667   76.117409   50.448250
H   68.191574   15.656734   28.128689
H    8.168305   77.255226   44.123226
H   90.235786   63.786018   16.841011
H   38.607971   22.282127   83.803772
H   98.289680   78.970085   95.060738
H   94.080093   55.633751   86.640701
H   85.849213   57.006878   38.885929
H   49.337879   14.136816   30.864618
H   28.661079   57.651276   12.263515
H   27.711756   56.066132   50.630997
H   65.232094   21.219408   74.105728
H   80.412720   44.805389   36.724781
H    6.763499   70.354263    3.197503
H    5.047863   60.017014   41.495304
H   83.757164   67.278763   79.057663
H   70.953247   77.742874   65.126549
H    7.432437   68.001335   30.507408
H   47.089500   67.445908    0.930171
H   71.287117   31.434925   95.270706
H   35.664356    3.135048   63.682045
H    6.135521    8.097599   10.930318
H   59.472214   46.543610   91.501045
H   56.323555   76.275154   74.202667
H   57.252125   92.387054   91.050362
H   45.509621   73.983162   19.678671
H   90.931114   93.771675   59.379745
H   64.083916   84.756798   69.625992
H   13.045488   67.200294   48.181953
H   18.388288   65.883820   54.993130
H   39.551849   76.998627   40.754017
H   88.964935   17.632557   53.429394
H    3.004893   64.150551   63.247562
H   73.716522   75.781761   28.490969
H   61.615631   35.067944   19.830442
H   12.258523   15.702860   12.109592
H   56.738522   88.334869   27.054874
H   28.869308   84.916969   84.423523
H   15.239737   68.116997   52.435558
H   42.881824   98.241020   48.576752
H   43.793011   26.192841   81.535225
H   96.090828   74.344543   78.657303
H   67.666626   59.940987   30.107899
H   22.131493   49.600800   77.111694
H    4.837631    3.039248   85.360443
H   68.459885   29.105263   14.435277
H   53.961121   24.493052   81.065575
H    2.139948   20.149477   18.559111
H   63.394459   21.556240    6.889671
H   29.067976   58.818844   10.658775
H   78.567528   43.929337   86.957176
H   86.835968   91.364647   14.530548
H   62.840450   90.931458   82.084061
H   90.580338   39.952381   36.121128
H   46.867378   93.564507   79.871925
H   63.395645   60.412045    2.836725
H   56.878220   33.744637   97.697601
H    6.755511    1.235543   94.137146
H   13.338363    1.998196   82.699615
H   35.410358   81.270485   53.882027
H   29.998358   51.901756   17.648335
H   18.479843   71.846489   30.322918
H   31.511715   78.163734   66.859352
H   97.263275   41.605534   85.659103
H   39.038475   86.055046   88.594070
H   86.535965   44.577633   50.821625
H   56.031223   60.538658   12.921264
H   94.343727   27.006512   18.386759
H   56.881676   17.330202   43.323204
H   87.514381   22.660471   19.455132
H   18.600178    3.008448   31.889132
H   88.788475   58.064854   89.533409
H   71.122520   84.533424   39.031437
H   12.840012   84.289780   72.784210
H   43.559185   40.594009   68.576019
H   69.980980   47.088432   53.937721
H    1.191858   82.805458    1.992396
H   43.000736   91.619438   54.369759
H   68.320053   37.922668   46.873619
H   93.403770   60.806591   24.074730
H   46.131496   74.320984    5.510603
H   64.037506   98.338676   16.999018
H   19.593496   60.769886   35.406841
H    0.535083   41.235897   23.493486
H   39.432205   39.304504    1.244095
H   46.160667   85.662498   18.094681
H   20.855043   33.067242   97.681969
H   78.735283   75.778648   89.015068
H   99.852005   47.011387   28.236713
