100
TIME:    0.599, STEP:   599
H   76.814613   67.089973   98.597610
H   84.607933   37.221889   15.784886
H   90.056091   16.998505   16.306625
H   81.577148    7.970728    7.329401
H   89.805862   20.770012   49.463539
H   18.727795    0.561712   38.066509
H   21.577324    1.783990   37.295353
H   72.806076   40.422749   53.196571
H   38.903435   28.702087   62.383553
H   58.470848   24.985973   31.146303
H   44.537506   90.344727   82.050453
H   32.978397   53.715416   50.291298
H    5.160599   25.467224   65.592308
H   25.422764    3.230412    2.823292
H   87.787743   16.518854   21.978567
H   77.439438   59.345242   83.317856
H   75.907845   21.609818   27.892286
H   13.944558   65.571274   78.780075
H   54.591682    3.480460   94.921249
H   76.435005   92.973114   57.053017
H   28.731033   96.584442   40.985374
H   19.783985   44.890549   68.252754
H   77.746513   89.750587   15.211559
H   63.387939   43.865818   62.589088
H    8.160574   38.669308   40.981949
H   43.912411    9.761683   33.029297
H   10.425940   17.576927   11.852613
H   81.998863   84.398483   86.573776
H   24.195923    3.438229   28.856640
H   23.961458   76.014542   31.006908
H   39.664707   75.758049   62.011986
H    3.578549   35.961914   43.811638
H   12.550150   24.656290   51.759605
H    3.411001   18.827789   46.515907
H   65.882744   13.640489   61.202026
H   24.636028   31.540396   18.583258
H   37.251019   82.598976   55.664135
H   39.232323   47.990803   64.709831
H   23.791039   67.721107   84.715515
H    6.774693   56.107533   85.162407
H   94.307251   76.733299   56.454266
H   77.786461   38.741577   30.942053
H   16.400373   67.091965   44.739227
H   41.108765   22.809938   39.299202
H    4.697041    8.258531    7.365263
H   70.301247   74.464653   85.667274
H   42.404957   58.054882   32.741646
H   56.271404    1.550622    5.640645
H   82.539116   82.839951   20.579241
H   38.452732   39.866558   41.769531
H   43.498920   11.813845   59.732639
H   34.242439    8.155888   34.738892
H   21.304667   25.481934   68.082344
H   62.818104   97.429192   58.248554
H   93.072906   11.015985    5.488983
H   94.315720   11.902424   72.235428
H   34.225555   72.263023   12.957420
H   81.455994   20.318886   98.125687
H   37.518486   64.077805   65.499084
H   19.491356   73.829575   46.572594
H   97.485641   50.713715   67.691895
H   77.651459   22.369949   68.253647
H   14.862383   66.306236   92.464211
H   84.171822   45.052895   10.876402
H   56.098923   13.002632   51.345390
H   64.547829   12.495014   81.603416
H   39.510124   69.069580   95.981369
H   38.988853   51.794846   94.838264
H   86.756157    6.745995   22.663776
H   42.520355   78.272118    0.471157
H    3.010566   54.647793   54.963352
H   24.577059   31.645988    0.477054
H   67.935852   88.677895   46.389950
H   17.006493   11.473318   67.608253
H   91.052292   29.496004   46.806446
H   39.820087   45.963333   55.623615
H   21.339935   74.627800    1.633300
H   60.122437   11.553215   47.521496
H   90.263680   51.747898   24.367519
H   70.149429   76.332420   69.316803
H   22.603809   35.478588   15.789612
H   86.266685   48.139481   36.690681
H   55.695805   17.255232   86.951721
H   91.375153   63.418797    8.718086
H   23.163370   11.415309   89.686211
H   37.506367   31.056118   83.379555
H    7.160589   59.800743   52.105755
H   65.597885   57.336571   89.513451
H   68.113716   60.820686   23.299770
H   13.376522   84.638123   45.626125
H   48.536106    5.776526   46.111523
H   22.606890   40.556252   44.936508
H   23.716595   45.578346   65.255089
H    5.122778   49.567131   67.204872
H   46.236012   96.074188   29.850174
H   43.396545   72.077324   36.509941
H   15.056753    2.055925    2.739771
H    9.064481   21.337799   46.451759
H   80.177147   39.432346   94.876808
H   76.441391   63.319477   39.994003
