100
TIME:    7.586, STEP:  7586
H    4.312344   26.348297   92.200821
H   90.970352   15.937346   56.427868
H   10.167345   19.671047   34.292072
H   82.749893   20.107449   24.347797
H   27.221903   80.808693   60.017456
H   10.378129   92.989616   30.012787
H   55.386677   73.581482   83.688232
H   23.641655   44.886837   11.671897
H   67.149513   56.930435   22.574810
H   67.559120   25.308718    4.740718
H   94.623795   71.481796    9.027945
H   66.306808    3.937696   52.949074
H   60.015694    2.815903   71.230247
H   79.468040   81.693703   34.538235
H   72.745552   92.413925   86.091339
H   96.505920   48.229736    3.336322
H   14.086205   83.725647   63.971859
H   63.291019   25.704071   36.557350
H   63.415417   96.593857   63.020008
H   88.137436   44.714977   32.822731
H   14.112717    1.006301   51.344677
H   89.657547   54.154510   73.260315
H   84.458168   32.925774   15.305484
H   14.208792   27.578829   43.671661
H   58.265205   84.552322   92.564247
H   11.838711    2.467850   77.006660
H    7.929277   27.135359   50.488018
H   92.457329   10.528525   17.524717
H   76.120995   37.352955   98.578575
H   91.874649    3.085789   86.454124
H   14.611682    2.307457    9.198830
H   44.741879   42.917263   96.990074
H    4.703997   13.454634   81.203743
H   98.627754   78.511116   52.164795
H   92.160957   85.303398   86.590073
H   32.075306   79.596710   95.576729
H    7.395462   26.720274    6.212485
H   50.447975   20.123714   57.763191
H   24.864201   16.130945    9.172791
H   48.676666    2.006900   34.884995
H   16.802225   16.477880   21.067350
H   60.907188   71.351654   67.237328
H   76.572357    8.994038   49.417591
H   94.952621   39.973167   22.454556
H   98.626839   32.587421    5.264217
H   80.203087    7.606982   13.980223
H    1.000896   37.391182   98.281609
H   56.650631   73.503326   37.956219
H   86.776985    4.178358   41.865715
H   85.009521   46.197208   53.119911
H   42.980701   37.264542   33.393646
H   73.808060   59.815098   76.063080
H   66.229988   65.994934   62.287331
H    1.020775   83.431656   66.565567
H   36.786728   23.405411   64.872925
H    3.044113    4.553988   34.381454
H   77.170746   70.655556   77.479134
H   61.186447   60.483345   18.156992
H   88.564857   59.304348   29.108841
H   58.419830   10.872640   47.846703
H   38.231731   25.787880   22.932076
H   29.675972   57.332657   52.112831
H   89.074135   89.627716   13.275665
H   63.958179   83.087219   21.178516
H   33.423584   54.963856    2.019725
H   35.327332   65.150810   94.727371
H   78.929321   10.630930   33.315044
H   56.348869   51.389091   28.857269
H   34.987503    4.704742   84.452087
H   84.092476   29.669657   85.753815
H   81.142326   79.250580   71.152534
H   48.578358   99.714256   12.097413
H   12.369532   43.077518   67.247131
H   63.207272   69.300415   52.418945
H   27.895926   39.485172   76.477356
H    4.992612   93.764061   85.487679
H   55.753620   69.213814   25.279856
H   88.384399   54.691494   33.386127
H   25.289824   31.236248    2.316099
H   27.500153   95.773613   67.380531
H   59.323463    7.763009   33.387756
H   10.544381   93.666977   52.358891
H   97.705742   33.982822   52.396088
H   72.053139   61.309689   70.552574
H   82.954758   74.370323   12.375297
H   76.700729   87.700714   68.578049
H   73.806572   51.788475   85.273048
H   78.032768   98.034363   16.922913
H   13.114453   71.795982   66.147102
H   95.634094   97.165787   95.398926
H   34.473103   83.053413   93.664230
H   39.586079   66.019058   78.068779
H   71.730743   55.138180    5.641604
H   80.423409   73.406700   38.311062
H   25.435204   70.222702   90.405243
H   20.494125   96.169739   75.622078
H   60.461266    3.024833    0.910577
H   23.634584   61.813015   26.592928
H   47.333427   69.560387    9.629650
H   10.407728   83.964340   66.957703
