200
TIME:    0.434, STEP:   434
H   15.432452   61.831150   18.656857
H   29.693415   35.710342   97.772804
H   14.071568   77.629501   54.903740
H   24.381969   79.241280   39.426643
H   13.150395   88.646149   50.869247
H   83.307434   47.549530   59.807175
H    6.169936   55.166481   53.406384
H    7.236058   97.263763   18.186153
H   95.307060   84.597824   42.986790
H    4.032063   72.181419   88.420326
H   18.955629   98.738472   99.092255
H   31.580017   47.200981   21.985952
H   15.935664   93.446327   53.340569
H   95.234093   54.025433   51.614132
H   10.255525   73.438011   42.501259
H   23.645657   17.973072   50.138016
H   93.333725   16.804478    6.013046
H   31.955364   92.493164   40.066547
H   71.480148   22.678459   45.339691
H   90.673454   77.040489   29.950321
H   60.413277   86.442566   16.952457
H   85.710091   56.229683   63.098694
H   89.195808   61.130920   44.481285
H   12.717366   89.827904   90.977760
H   11.678739   20.506407   38.487911
H   18.500502   70.945892    0.549185
H    2.652605   62.689426   56.882004
H   98.962433   78.132347    1.241739
H   19.239498   50.633003   37.202385
H   84.282776   25.961355   91.915115
H   13.108210   59.554295   16.431999
H   28.398228   68.053207   98.379417
H   22.435814   13.159983   75.548798
H   90.005867   63.789574   41.681213
H   38.678593   81.784775   32.743427
H   26.724197   45.498665   81.701073
H   91.832611   70.241791   87.411354
H   23.318996   49.773602    6.444828
H   45.890274   39.453754   48.743912
H   88.222260   38.890713   56.118256
H   80.562035   96.161316    7.963560
H   22.995501   39.038826   34.078720
H   73.208817   83.325340   57.531940
H   36.849075   72.656227   25.686686
H   35.405464   82.214081   51.364799
H   38.329742    8.789682   44.797764
H   83.630005   16.707703    0.432758
H   85.392815   65.547646   40.673416
H   94.583008   21.390133   61.306202
H   55.174976   18.676985   97.504929
H   73.593277   68.040627   20.180340
H   13.722120   39.037090   67.712654
H   57.408363   88.870705   10.465954
H   19.519283   86.277664   84.576042
H   68.987289   72.070435   84.499199
H    2.818712   67.570808   85.000824
H    4.876833   17.479591   47.573566
H   69.528183   63.089268    1.801979
H   24.087568   78.225082   11.818595
H   38.616360   94.899818   63.407944
H   49.791214   11.591413   36.568451
H   93.422661   16.884455   50.553032
H   76.791962   29.225317   78.339905
H   28.826473   65.429115    7.998932
H   74.466949   78.971191   25.862581
H   31.129709   24.098177   36.350418
H   78.928566   19.069874   89.843239
H   96.255028   91.890999   91.112419
H   23.423094    8.474879   59.524315
H   44.120228   45.011280   50.972233
H   58.380058   79.947525   78.470581
H   26.688171   18.722509   43.406834
H   83.651016   29.017010   92.999588
H   14.185586    4.700445   66.220253
H   81.507278    4.011988   58.490845
H   58.217339   12.227530   61.609764
H   94.607605   37.172356   69.401466
H   19.369713    9.502573   41.333717
H   13.005482   38.336582   30.641720
H   65.352890   89.584991   85.061310
H   51.601910   26.823252   98.253601
H   35.166798   65.101646   81.859856
H   10.242826   15.794318   84.603523
H   18.347738   68.203316    0.174524
H   31.999840    1.375311   52.284355
H   30.132862   78.986572   23.744362
H   44.550079    3.188362    2.216083
H   73.718178   11.323914   18.759445
H   71.623550   72.529449   77.869507
H   22.472443   94.742760   52.731197
H   33.110397   36.567532   79.891586
H   82.704094   90.237579    2.600891
H   56.475552   14.674137   90.204605
H   51.328564   87.463844   74.431557
H   30.040691   54.301979   76.019661
H   61.238075   32.046738   19.940180
H   81.937218    7.569122    6.684312
H    1.561514   31.453308   50.430378
H   32.622002   67.834656   53.568756
H   70.577583    1.079840   27.297770
H   18.521757   85.790283   78.074989
H   97.786324   79.591614   64.794487
H   27.200834   30.080160   33.213856
H   31.197958   68.297668   97.866302
H   25.081572   24.923256   31.377232
H   95.103355   17.274694   34.808121
H   74.848259   32.505650   55.356369
H   63.608303   41.722992   11.239958
H   77.726784   37.640823    8.513477
H   10.598704   25.355501    6.486750
H   49.746979   94.380943    0.932344
H   93.783737   68.223816   92.720955
H   53.724586   82.525894   89.715599
H   62.567009   15.214947   69.951233
H   57.376289   90.046967   19.970478
H    6.121240    0.121884   87.686234
H   24.598667   11.174424   86.441696
H   39.786846   36.545361   30.100639
H   26.229921   64.997192   73.951553
H   75.902306   50.546810   56.579720
H   42.579353   23.048603   81.162788
H    9.918377   22.884312   53.894699
H   36.913521   13.640507   29.784159
H    1.219010   60.337570    9.369640
H   71.111412    4.148719   86.396889
H   54.829800   67.660309   21.785616
H   90.564461   50.095749   63.562485
H   71.185219   89.091515   36.641048
H   94.855125   45.461323   80.469200
H   77.148285   23.229832   69.806679
H   56.440178   78.258820   10.825176
H   74.253609   87.975510   13.901982
H   91.804268   92.033348   98.818253
H   91.407944   17.977024   52.095089
H   14.009898   97.862305   47.502228
H   57.191040    1.377869   80.823524
H   69.213898   87.058876   64.996330
H   92.873100   58.163631   80.133080
H   51.384064   47.046661   71.504204
H   43.553032   99.785454   90.066956
H   60.222042   57.363609   21.176666
H   48.307358   46.905334   50.769344
H   48.769089   60.331738   92.840714
H   48.823586   19.505201   81.339211
H   49.420849   63.333069   55.412266
H   53.048325   65.318253   20.554825
H   49.319572   95.928215   45.892818
H   37.355156   66.197273   67.711937
H   70.371552   56.692490   96.015884
H   15.646034   90.792824   82.737030
H   69.382149   64.604660   49.879635
H   41.953835    1.741813   42.072807
H   85.188095   24.584606   96.654297
H   15.038261    5.595726   71.158470
H   21.305370   59.002415   64.263222
H   69.261177   44.009937   60.029472
H   61.341961   66.701477   83.052902
H   48.804237   33.547241   14.269157
H    3.502806    1.003346   95.410332
H   61.504665   49.028229   85.685989
H   55.861580   76.527840   78.257729
H   34.495556   22.050941   33.863319
H   73.570091   26.111641   37.151386
H   18.395700   25.878796   62.898476
H   57.096657   28.671118   11.730732
H   15.256137   58.266529   61.241329
H   71.559242   94.429146   54.278301
H   23.801685   39.759155   56.034870
H   96.709023   27.539316   36.398842
H   35.326187    8.995708   88.218719
H   75.658813    7.940929   35.959793
H   39.461037   58.241379   58.053856
H   41.421303   69.118301   84.965408
H   68.837051   69.897530   78.740265
H   62.421082   93.577164   90.109550
H    6.897004   48.708763   23.472868
H   33.424786   58.981430   95.023369
H    3.449372    9.385872   67.360855
H   70.640266   16.869692   66.865845
H   77.072090   56.536125   89.121712
H   77.875931   92.141457   37.208687
H   23.140688   30.342861   76.698456
H   56.703449   89.964218    9.909943
H   55.705589   25.579411   84.327339
H   88.031738   79.919998   77.597580
H    3.321753   37.860764   84.925148
H   38.107178    1.201499    3.563710
H   81.100845   75.442085   32.314682
H    1.000278   62.038525   68.760605
H   53.141396   57.217999   68.154068
H   57.087933   24.605881   77.916084
H   46.062546   90.201324   22.153357
H    8.409688   22.139355   62.250221
H   31.714163   71.273544   37.222973
H   78.237106   45.590076   21.181690
H   75.801773   10.859484   26.908478
H   10.750819   90.849297   10.014752
H   23.271410   93.550514   41.495514
H    9.326276   12.154722   69.340706
H    5.984344   28.420143   95.053528
