100
TIME:    2.141, STEP:  2141
H   72.535309   25.680618   97.185867
H   41.714470   20.825983   13.053608
H   16.556684   27.935730   98.203056
H   81.835968   44.441551   22.807278
H   75.994308   44.368107    7.653938
H   94.817268   98.888588   90.776054
H   40.760426    5.907336   57.881844
H   51.607918   73.825043   11.613907
H    0.998082   80.444916   65.320107
H   16.332502   47.124947   91.528252
H    1.104429   52.390232   33.517780
H   74.125687   31.007753   40.529900
H    7.073961   32.174049   12.331278
H   49.071602   98.476692   20.170803
H    6.542079   78.784607   47.857132
H   15.439651   24.469551   55.320084
H   51.934250   23.584755   68.285904
H   46.896812   90.583672   25.321331
H   78.610237   68.172729   76.157913
H   34.835976   60.345173   62.101875
H   37.226654   43.074444   99.134232
H   67.640106   46.926193   36.952332
H   57.158592   77.209602   71.093567
H   20.119453   62.359653   48.065453
H   53.009148   16.373581   52.358589
H   36.841930   63.811176   88.496147
H   77.458519   53.479649   42.452145
H   51.889999   56.374355   37.541645
H   57.724823   43.340004   55.965813
H   83.089165   37.850418   53.591763
H    0.322646   14.040140   39.994106
H    0.941357   93.359901    1.060992
H   21.166447   11.836723   90.675140
H   68.563515   77.512924   81.554504
H   27.553234   97.076813   55.099236
H   58.706280   52.671619   13.279828
H   85.148621   26.128637   77.167786
H   75.498634   19.767704   73.525108
H   54.702202   34.766663   36.833061
H   61.534252   11.749675    6.483183
H   88.927773   29.646631   92.785568
H   39.200317    7.945997    3.387826
H   29.682524   76.338882   56.119171
H   42.641472   48.654510   90.069626
H   70.938850   47.416767   39.322227
H   50.465702    3.753071   91.863777
H   58.455822   41.273041   46.007416
H   56.353756   17.426954    1.050903
H   27.613791   55.130909   59.070663
H   70.790947   63.336788   33.920116
H   43.381275   62.943825   75.991211
H    9.181757   65.071274   33.509411
H   53.292412   34.422974   78.524437
H   27.112766   72.276634   26.292334
H   70.316055   46.196796   18.573500
H   96.245102   10.281860   19.742111
H   31.981813   27.769585   59.614372
H   66.633636   74.696472   58.408646
H   59.131905   29.231710   47.117966
H   17.735439   92.351761    2.715309
H   94.756210   79.004829   47.465939
H   22.923859    8.015591   98.479721
H   19.455132   61.153221   86.677170
H   90.057983   53.441002   69.015160
H   17.301311   89.845856   94.948166
H   69.820259   35.837502   72.777977
H   15.792089   22.383272   70.429703
H   32.472389   39.983765   68.554779
H   63.611290   95.947731   25.952438
H   73.758850   55.830376   97.224792
H   54.046318   49.726219   36.469135
H   97.432373   80.469376   13.375277
H   67.394424   12.404667    6.849377
H   83.073021   13.892402   75.962563
H   65.396019   31.690088   63.700298
H   76.274391   44.791039   51.866726
H   61.344810   40.979401   28.914148
H   32.568401   10.725485   32.679478
H   64.179306   47.229939   41.565056
H   94.526588   92.350479   36.472054
H   52.779819   51.431286    7.951598
H    1.964079   58.209915    7.748114
H   53.264011   42.992645   33.819462
H   97.450874   95.369728   67.873169
H   48.080856   14.962694   40.206436
H    2.013039   87.697289   90.460686
H   10.147284   47.684784   25.634565
H   90.421036   33.880783   73.482887
H    0.113243   74.964851   10.683556
H   77.045761   21.188210    0.754584
H   11.641205   89.039429   78.675735
H   36.700588   56.527859   74.316658
H   22.654446   91.784714   84.548569
H   54.164272   43.100437   71.174217
H   19.574852   57.952759   65.284569
H   70.759399   11.185915   56.863541
H   92.660141   90.548241   14.058636
H   14.726159   34.467010   21.779110
H    6.721098   46.079304   65.708054
H   72.204666   23.709549   91.476593
