100
TIME:    4.036, STEP:  4036
H   44.383698   51.899536   95.450943
H   89.011482   23.568193   32.588120
H   49.129890   64.269981   75.967110
H   82.154037   66.366997   18.935736
H   59.020966   96.260704   56.271805
H   65.439217   96.835594   78.445030
H   41.443340   33.867794    6.073441
H    2.664658   37.766994   37.622005
H   54.415352   98.248337   46.035580
H   64.547295   74.334343   65.737488
H   24.836136   28.639545   50.981083
H    1.795848   25.994257    5.642548
H   86.521683   17.525276   23.984940
H   55.241722   92.635780   64.382706
H   29.594772    9.515760   56.766895
H   39.246246   58.725761   98.017517
H   99.555916   48.919941   40.801353
H   87.384483   98.429802   59.621777
H    8.130409   47.669670   75.993652
H   83.781242   20.107248   91.122307
H   24.774750   54.421505   47.698311
H   49.315598   49.441833   75.575607
H   31.857613   61.797691   16.875164
H   44.053383   85.087158    7.323956
H   85.234039   66.085556   66.346596
H   28.149649    7.351224   10.876564
H   14.049673   74.706619   80.050453
H   91.996124   44.826538    0.178549
H   98.929276   15.269633   66.388344
H   55.751144   90.948418    4.239392
H   74.898476   83.971321   90.063469
H   20.592543   41.000458   25.631294
H   54.648624   73.189445   61.391708
H   48.632446    3.847478    1.721695
H   80.446793   53.829491   70.491501
H   23.478228    1.534046    6.755423
H   66.903061   56.728989   26.486197
H   97.177895   85.090279    7.251585
H   74.712891   93.481071   53.193718
H   83.047081   34.346291   55.579197
H   59.419632   94.669998   37.432110
H   68.888443   92.995392   92.416458
H   46.005268   87.702637   92.998528
H   21.632914   80.410614   75.352905
H    6.562933   72.649963    1.481693
H   26.017727   39.897327   99.555275
H   73.265915   44.329674   64.209496
H   56.454960   36.939453   18.302696
H   83.006210   98.188934   83.476837
H   10.524531   92.165779    1.382278
H   43.236698   79.993568   95.971756
H    1.275431   89.228638    9.105152
H   92.592384   45.410828   68.466072
H   83.228111   41.355476    9.914348
H   19.441605   12.293322   34.674656
H   98.616165    8.288504   55.231842
H   52.115673   73.089561   39.844704
H   25.526848   95.736931    9.596598
H    8.588179    9.299311    1.636784
H   92.684937   38.008770   48.817146
H   14.294392   90.879784   99.718361
H   55.669090   90.375565   12.737039
H   48.064899   31.874191   56.709831
H   20.183939   63.749344   17.561604
H   92.517845   38.495312   71.424126
H   53.407234   41.631233   84.823624
H   63.752701   87.897461   61.920452
H    1.571508   48.360733   59.146740
H   58.057457   59.785110    7.100777
H   12.156130   51.142578   93.234467
H   93.870476   20.790424   13.732979
H   41.180382   17.578369   52.119480
H   43.837112   18.669827   58.267815
H   41.363369   93.973167   63.348595
H   56.761776   34.392849    7.353836
H   21.070108   66.243858   24.358280
H   33.397316   76.733444   62.427769
H   21.598949   86.816566   37.333359
H   55.052185   41.663723   62.716675
H    1.592040   89.144646   73.216240
H   89.853745   71.035934   21.211088
H   44.151184   70.585709   49.289917
H   73.155830   74.626099   14.309032
H   27.820890   57.528389   94.791153
H   55.809799   96.429695   56.507462
H   58.406162   57.305290   22.055466
H   36.710045    9.902855   15.995726
H   20.921831   82.162422   53.770088
H   39.442978   69.454216   95.181526
H    9.501559   43.224495   68.492554
H   89.192322   91.364159   18.694742
H   76.919556   99.029839   10.430637
H   44.168861   48.617935   31.114603
H   37.322704   58.047180   98.945854
H   86.809792   88.209099    8.830432
H   27.278671   36.353401   58.984306
H   42.243378   99.298576    5.074678
H   21.680975   50.601807   91.453926
H   16.447472   54.247906    6.978867
H   89.902809   75.061531    8.938991
