100
TIME:    0.674, STEP:   674
H   71.742592   60.212074   98.528946
H   82.521675   41.288548   20.515867
H   91.344696   22.394108   15.426003
H   81.589737    4.880537    3.218318
H   89.134094   26.781593   47.429924
H   17.564789    0.480084   45.494297
H   17.646564    6.848500   43.160450
H   66.911224   46.910976   46.310089
H   37.059792   21.491165   57.662292
H   56.421211   26.062576   34.083427
H   37.561188   93.362534   74.825798
H   30.115658   57.474800   44.952629
H    0.389920   20.929642   58.138077
H   21.709156    2.999170    8.531025
H   88.699837    9.819901   18.373392
H   74.423920   52.784916   77.092270
H   69.877953   26.569687   34.720802
H   15.547160   61.924042   76.179977
H   55.759552    6.626942   98.872894
H   74.404823   91.400696   62.169670
H   24.280426   89.118317   38.950043
H   26.975452   44.989540   61.866756
H   76.745155   89.140617   13.065649
H   56.419632   44.765324   57.018677
H    5.478356   32.721241   41.535614
H   43.568516    7.527066   25.999517
H    3.958597   14.459199   13.340918
H   75.670280   87.899231   89.052567
H   25.826706   10.242740   25.311546
H   26.837072   74.158310   36.969234
H   42.614994   82.483742   56.077080
H    8.313959   33.889961   36.868507
H   17.833122   19.169134   58.516197
H    6.580013   11.954553   43.356194
H   64.018501    7.970942   65.769012
H   31.157158   37.431835   18.325193
H   44.444202   79.852394   61.573864
H   36.132690   46.618084   70.002724
H   20.419323   66.120079   77.527481
H   99.710548   49.086010   91.062981
H   89.181442   79.307076   58.221806
H   71.045891   42.107857   34.465687
H   17.046392   67.541718   50.156288
H   36.319412   24.066786   46.632576
H   98.191307    5.299518   13.783396
H   69.343376   75.874565   85.961388
H   43.196888   62.100941   33.382515
H   56.275410    2.322838   10.281188
H   84.731804   76.628098   17.587469
H   40.025723   41.008106   36.524132
H   43.493198    4.572882   60.523426
H   37.887383    1.196381   29.815071
H   22.860491   25.916809   63.726685
H   61.081463   96.205818   61.558186
H   87.102524   17.590902    6.125418
H   94.409561   11.823603   69.682251
H   38.980003   70.098946   20.090584
H   75.871277   13.236137   96.193924
H   43.433365   67.246674   59.741138
H   14.542315   79.593964   44.439415
H    2.216703   47.226128   61.844177
H   74.989563   21.671860   64.860474
H   19.949600   61.191872   87.318947
H   89.321663   45.460876    8.839926
H   59.076103    7.012377   58.330292
H   59.940437    8.766529   86.038002
H   33.492821   71.662811   99.602280
H   33.808113   56.084091   98.423698
H   90.493797    1.356987   17.959682
H   44.039558   82.044090    0.313443
H    0.628826   49.544300   54.063847
H   18.392958   29.156898    5.968264
H   63.045792   84.967720   44.466770
H   15.355739    6.727044   63.150780
H   94.668625   29.602720   52.491871
H   41.593349   50.770424   50.577343
H   28.149456   68.127556    2.960355
H   63.646072    6.649116   51.663685
H   93.858269   51.528172   25.203796
H   66.471298   72.248024   62.855469
H   24.071514   36.254498   20.271984
H   91.893745   48.629288   30.418819
H   60.441097   18.506929   94.095123
H   96.534149   69.836647    1.867653
H   19.511274    6.723947   82.415779
H   35.780025   33.811184   88.587761
H   12.169668   54.347633   55.682034
H   66.805237   51.331856   88.734108
H   69.670113   56.644737   22.686081
H    6.745529   81.551651   48.307476
H   51.605412    9.826265   47.695385
H   28.156130   46.197044   46.365303
H   28.528549   47.825394   71.057243
H   12.371923   54.116730   72.262016
H   44.939396   89.356506   31.573368
H   49.591232   69.115593   32.636116
H    9.103680    6.359921   98.426422
H    9.339854   21.976379   45.251846
H   76.604301   39.755642   88.594002
H   81.099136   61.392864   32.770493
