100
TIME:    9.899, STEP:  9899
H   47.892731   14.236520   90.083206
H   27.089653   41.276989    2.267904
H   49.925564   86.077950    7.140303
H   83.138123   24.812254   97.563980
H    6.495749   66.205490   97.304161
H   74.515991   90.483772   59.077705
H   34.163746   29.766092   64.567871
H   41.844421   44.990719   99.299721
H   10.291557   34.543549   76.981422
H    4.379755   58.519978   95.306618
H   79.474091   64.548843   86.224892
H   78.024773   19.875710   88.307762
H   12.523333   62.814278   41.372406
H   64.942230   74.564400   10.557697
H    0.839365   85.805359   74.855980
H    3.504736   45.926254   11.337110
H   28.088417   36.712425   74.533371
H   12.751548   13.153440   56.377243
H   99.449875   93.627365   84.889587
H   25.819790   95.596649   90.302574
H   76.855530   70.742073   88.566238
H   11.407120   57.225052   76.287003
H   53.575912   14.121878   49.136391
H   99.297668   55.248993   71.889404
H   75.539658    1.119377    9.641552
H    0.929722   34.280991   59.342663
H    8.476757   30.986601   96.374863
H   97.293251   18.491566   93.979668
H   26.415478   47.206516   89.241501
H   80.564980   45.839371   70.330757
H    5.642593    9.718689   26.201721
H   90.786331   79.011612   82.864082
H   67.630898   44.224106   89.577049
H   96.357849   66.538414   54.721977
H   34.597130   10.176735   27.316198
H   33.140018   60.767735   88.306252
H   29.242229   42.012947   88.467911
H   54.846424   77.799889   20.986359
H   27.231594   65.734520   85.026054
H   30.818619   85.471542   16.866983
H   58.724792   95.842575   75.560631
H   65.979897   80.427048   85.312004
H   96.477936   22.871010   16.488209
H   47.267811   78.803566   48.604206
H   97.966125   41.302189    3.183193
H   50.352791   51.719097   23.377138
H   19.084583   63.184147   20.492556
H   56.791805   97.326492   81.071213
H   54.385895   12.616087   49.592499
H   33.562737   81.411278   91.394783
H   46.401340   14.227684   52.280426
H   86.220154   45.185616   24.228163
H   14.197807   79.406494   27.953506
H   47.450920   45.694260   68.631844
H   52.621956   26.105589   84.531448
H    5.924952    2.120936   55.641464
H   23.805908    3.914734   97.464622
H   88.956253   42.048943   58.579857
H   70.994408   57.040703   51.539387
H    5.787832   88.657944   82.059486
H   84.140717   18.222200   42.599140
H   47.583061   35.803574   47.457848
H   46.129032   31.834066   54.685349
H   22.786324   95.687027   58.384560
H   25.230518   70.226936   17.419188
H   93.238953   50.164940   31.490992
H   93.352730   90.596466   44.986340
H   96.573967   83.671455   39.432053
H   50.267975   38.507324   39.385159
H   31.068512   45.844547   80.848007
H    7.685289   21.867764   43.411781
H   58.107628   22.915428   81.637970
H   61.559189   28.665251    7.937107
H   12.296284   22.912952   14.988771
H   39.314903   42.891003   51.850391
H   59.679245   42.006046   29.852554
H   65.823189   69.017502   66.306206
H   97.045052    3.458441   61.136345
H   36.206146   24.442234   28.131014
H   14.069551   69.773720   68.113564
H    4.604696   31.692057   71.633186
H   84.108543    8.675767   58.852516
H   44.007187   72.664589   72.674332
H   31.184826   59.238235   59.295799
H   70.332947   29.678185   88.157333
H   23.464573   72.662331   29.199955
H   28.286745   83.613899   95.565605
H   15.230778   12.949702   92.946060
H   61.117191   43.011391   47.229744
H   91.134155    2.002800   78.080887
H   29.131186    7.948015   42.510887
H   10.724657   39.978516   22.141901
H   19.998341   24.533796   84.509453
H    0.382599   13.462464   99.773064
H   85.442383   63.038559   43.553383
H   11.538451    4.832119   56.152725
H   76.866386   35.760895   67.887451
H   19.169947   76.262222   80.151634
H   37.147362   79.548470   15.892139
H   54.075333   24.611156   44.138210
