100
TIME:    2.023, STEP:  2023
H   80.515289   36.501846   97.293900
H   44.996849   14.428225    5.610413
H   14.528379   19.446648   99.587669
H   81.816162   49.303001   29.275257
H   77.051224   34.909885   10.853268
H   96.646614   99.016426   79.090569
H   46.944370   97.939384   48.654091
H   60.882484   63.616032   22.448547
H    3.898794   91.790100   72.747322
H   19.556814   45.430641   86.908073
H   12.080490   47.642216   44.883671
H   78.628830   25.092989   48.929405
H   14.579740   39.313179   24.059456
H   54.914345   98.840401   11.190624
H    5.106714   89.324951   53.529724
H   20.184517   34.790230   65.115005
H   61.421280   15.781227   57.542641
H   44.375160   96.321983   29.412601
H   76.771889   63.222908   69.940659
H   38.014824   62.850620   54.067879
H   44.228943   54.822048    2.337040
H   56.326298   46.770065   47.000648
H   58.734062   78.169289   74.469574
H   31.082924   60.944431   56.829567
H   57.229607   25.731873   51.488029
H   37.382992   67.327576   99.556847
H   87.633354   58.385212   40.110546
H   61.846069   50.866512   33.641254
H   55.159058   32.634010   61.543877
H   78.564415   40.770889   44.210964
H   95.680824    3.457937   49.330791
H   93.490753   96.620674   11.984795
H   12.854631   20.469849   80.044769
H   63.577827   88.326950   86.525787
H   30.486759    5.996825   47.914192
H   48.446819   43.401554   13.685399
H   73.830444   30.450377   67.869812
H   80.376289   21.927448   65.197624
H   59.775543   37.322914   48.232613
H   72.648766   22.796507   97.199295
H   96.992378   25.597673   90.005539
H   49.805481    2.649830   97.844147
H   28.666121   75.631271   47.596329
H   50.176720   46.676620   78.531784
H   81.174904   52.072056   29.224039
H   51.988056    1.502406   91.384834
H   57.441090   34.870529   44.909615
H   56.347454   16.212042   93.749733
H   24.164862   64.903404   63.778168
H   68.317009   61.540752   42.172878
H   43.390278   74.335823   74.747040
H    3.447496   76.020340   41.256222
H   50.844582   33.738770   85.377281
H   29.845081   74.201408   21.085630
H   79.709457   35.851810   17.572401
H   96.097458   10.405872   23.759109
H   24.501482   31.174400   48.391624
H   75.420258   85.839996   61.447952
H   49.825829   24.245573   56.177368
H   25.521862   83.282455    6.071307
H   87.312790   84.492867   56.665783
H   27.111458    9.114143    3.818877
H   11.451166   69.199821   94.772385
H   81.955566   52.799110   72.218315
H   12.617663   99.269867   83.959488
H   77.069221   41.703651   65.800896
H   25.259764   18.303705   64.732803
H   40.623421   33.235352   62.913700
H   57.729836    4.426437   33.353546
H   71.367737   49.894905   97.473267
H   57.793236   57.755302   37.884739
H    7.161984   84.385544    4.735807
H   75.088120   18.241108    9.875179
H   85.669395   21.359743   82.975655
H   59.707001   31.522188   54.755230
H   73.485359   37.227882   59.806194
H   50.630714   51.207352   26.826876
H   27.024548   18.441236   26.162434
H   58.522102   47.576023   40.248451
H    0.313519   98.776596   46.637886
H   50.470631   50.210522    0.899144
H   93.110687   57.439285   17.615507
H   45.798084   41.022858   22.580509
H   89.334053   85.272316   78.651184
H   53.826370   22.343964   51.645248
H    4.729037   83.363396   82.266441
H    2.266320   56.264343   20.007887
H   88.521469   43.328201   74.710854
H   97.664497   81.535011   11.648869
H   87.478073   26.043358   96.536034
H    6.812136   82.667328   76.183792
H   27.969091   47.653912   72.067787
H   15.083637   88.248459   75.419846
H   42.758770   35.942402   63.217735
H   21.615311   68.522430   62.572960
H   61.013092   15.845480   62.958359
H    2.026481   83.776421   20.844925
H   14.292905   33.462311   23.667423
H   12.342150   45.570652   75.593002
H   64.876480   26.740303    2.841658
