100
TIME:    5.263, STEP:  5263
H   61.407143   39.377357   94.327591
H   55.123695   90.057602    9.954120
H   70.223587   52.545059   61.567898
H   82.359985   15.814655   51.680908
H   48.030838   94.610168   23.003128
H   46.408466   95.506294   99.958275
H   77.135582   16.719959    2.026475
H    6.224876   43.917866   24.962475
H   24.253349   80.277344   68.801003
H   31.015375   91.952248   13.782034
H   10.703583   78.010864   32.790989
H   54.968628   87.497780   18.302912
H    8.224045   43.326775    2.063663
H   94.488976   88.853828   57.757744
H   44.517387   99.915451   97.783936
H   89.909470   51.407852   96.165741
H    0.887871   30.077358   52.500000
H   13.613431   38.738316   17.083136
H   27.241436   99.140884   40.636791
H   50.721008   94.049110   74.662148
H   51.962837   32.269142   14.397808
H   66.949280   51.070694   71.085220
H   15.475320   51.818581   81.769226
H   30.049080   99.789032   16.196644
H   41.348419   68.778381   75.408302
H   22.554598   71.072037   95.509384
H    8.244108   23.699802    4.391222
H   88.465218    2.098752   40.740005
H   25.610207   26.592333    8.387840
H    2.800701   60.580467    1.782439
H   23.186874   93.999237   92.987129
H   98.066383    7.102726   12.041740
H   41.076000   83.416466   71.929558
H    0.475166   91.400261   50.028908
H   49.947784   61.077652   45.207481
H   30.140848   97.649025    2.880102
H   84.589020   11.792801   23.168987
H   46.461788   62.641392   93.837395
H   22.918934   66.745293   34.288101
H   67.476784   19.478607   52.116909
H   75.563080   36.768990   66.339699
H   58.612022   48.064751   50.056927
H   56.574139   95.060593   81.625618
H   43.282780    0.982022   95.324631
H    0.129839   24.241180    6.479312
H   10.186964   63.300495    4.542545
H   82.851852   11.057446   75.985970
H   56.520489   49.577164   94.222572
H   18.873909   96.568848   34.530495
H   36.258656   10.837576   15.563614
H   43.143085   61.534851    8.907420
H   60.904289   75.372879   28.555725
H   18.041744   52.525391   97.201775
H   54.810333   21.331726   64.058006
H   21.747219   19.828863   45.112469
H    0.150754    6.997558   13.461868
H   29.903252   37.685249   56.542564
H   34.161270   79.862114   77.992172
H    5.359091   61.143753    7.439224
H   11.715899   32.319881   13.918343
H   91.694366   33.818455    4.051785
H   12.122614   78.954819   57.221832
H   31.365030   48.145676   72.570740
H    4.439857   70.432938   84.249283
H   41.220184   40.497082   85.689064
H   78.031639   80.633812   57.372963
H   65.308167   30.318710   21.160107
H   16.814552   18.533926   17.804434
H   19.208609   71.620720   30.146362
H   37.014030   12.855322   90.650757
H   54.908882   37.305923   99.013222
H   40.008659   76.856155   41.954170
H   63.833939   57.975182   26.804596
H   14.350925   16.324123   90.444389
H   15.922105   36.143406    0.368634
H   50.080673   44.882057   41.796177
H   44.801449   70.385201   84.127190
H   79.245636    6.585268    5.094475
H   13.893910   38.059635   76.403725
H   41.418503   22.317688   67.509094
H   13.860455   83.729813   94.546562
H   36.215202   78.598953   46.688988
H   50.772186   95.135315   31.165220
H   12.236338   62.525436   82.723145
H   96.064186   19.680618   37.563499
H   30.163219    2.372065    7.261891
H   18.658606   20.689957   74.503647
H   40.671478   83.926468   41.010681
H   64.905624    1.137319   85.146248
H    1.018192   92.740524   12.357679
H   39.406334   57.617222   44.606731
H   67.707603   91.307526   33.808609
H   22.821764   85.437050   26.000446
H   55.916084   32.473217   81.675194
H   65.597160   78.302452   37.023319
H   28.623840   87.901947   95.607941
H   44.849907   69.713493   34.509277
H   26.183744   61.048981   71.813988
H   57.995880   59.537022    4.204796
H   66.114761   43.576305   90.738983
