100
TIME:    6.156, STEP:  6156
H    1.017620   57.485588   93.510025
H   30.460670   38.448864   66.262367
H   85.580200   16.791248   51.082615
H   82.509872   79.022736    2.730735
H   40.032318   66.187973   98.791718
H   32.557537   94.538841   88.395653
H   30.334713   77.020790   71.860298
H   36.036835   21.174496   42.970745
H    2.301671   94.418991   12.588185
H    6.617952    4.774756   48.750034
H   27.638901   13.942379   46.772141
H   20.882942   32.258915   54.738060
H   51.239731   89.324516   13.330498
H   50.272285   86.101357   25.714275
H   55.376778   20.148560   54.859646
H   54.004700   73.302711   22.039307
H   29.078316   89.142586   33.793312
H   32.710194   95.288269   86.126503
H   41.148037   36.605507   87.684326
H   26.664131   75.081581   35.461693
H   98.970963   43.368473   90.159019
H   52.562057   52.256165   95.038040
H    3.551082   44.555870   56.220291
H   47.077122   10.471895   49.875820
H    9.410903   97.957382   82.003334
H   18.483801   44.673294   11.535164
H   31.239780   86.579544   22.111021
H   13.116708   43.780968   70.259506
H   45.027397    7.612710   66.174713
H   37.040821   38.478935   72.773026
H   58.334541   74.075401   22.335808
H   54.450809   82.427582   29.372276
H    3.976874   18.080050   52.378052
H   38.207985    9.562047   12.409025
H   27.750217   93.572731   99.585022
H    7.768397   67.593056    0.071698
H   70.238777   79.088989   93.534157
H    9.554749   46.296886   56.852283
H   85.225586   47.287224   47.749947
H   83.366791   35.879078   22.375319
H   14.532761   67.408028   87.378395
H   81.419769   65.743896   94.234673
H   64.265839    0.415800   46.128067
H   86.262344   15.971090   82.636681
H   22.668697   89.008041   82.895615
H   98.662865   80.333115    8.170630
H   89.828415   59.622330   84.556786
H   56.568180   58.774780   49.476307
H   44.974701   22.610199   98.907608
H   54.988384   24.429792   53.105034
H   43.078892   75.321320   18.320930
H    4.303080   92.508545   69.933022
H   36.566425   57.703308   45.338390
H   34.132729    6.759694    3.464396
H   50.645287   98.086868   52.709019
H    1.263050    6.058208   83.062027
H   86.515587   11.918027   41.474342
H   67.667145   95.528969   54.991318
H   75.786896   98.874596   38.886070
H   52.785339    0.957772   88.519310
H   48.026112   92.289688   34.425617
H   80.429451   70.642899   16.813637
H   91.991173   87.208412   11.335052
H   65.762436   75.297455   60.007328
H   76.666046   69.175644   68.850456
H   23.173515   36.239983   10.174417
H   93.660690   61.188824   64.273941
H   55.128761   69.605446   60.494999
H   63.718258    7.455421   74.139893
H   55.102676   57.772423   88.770355
H   26.552315   76.546707   88.303108
H   66.375748   47.219391    7.334895
H    5.608109   13.806183    3.905939
H   94.693352   59.804668   37.384361
H   58.975033   37.417446   68.064590
H   71.191994    2.114098   81.708374
H   25.879505   92.984718   99.919838
H   21.200405   48.195137   54.413811
H   56.714008   35.436611   86.364403
H   97.629501   73.673073   90.576347
H   31.335718   92.968307   47.918430
H    3.237841   84.393311   71.991570
H    7.254727   10.068706   16.209320
H   73.671776   38.941673    1.162320
H   52.583305   63.825272   50.997192
H    9.608250   35.173820   69.274506
H   78.300041   55.761436   17.085333
H   55.034416   12.463972   31.749649
H   83.437119   51.415733   77.842659
H   22.065321   56.003078   44.278717
H   75.951530    5.838601   63.465252
H   33.780560   58.469254   50.820793
H   80.065002   12.229016   95.057510
H   42.220844   86.650581   41.888580
H   50.158791   98.311874   57.544224
H    2.381938   52.637604   49.483597
H   73.968102   20.960390   83.151978
H   26.394823   91.057724   55.298256
H   15.455222   63.386395   29.407623
H   21.584421   20.662334    4.712918
