100
TIME:    8.246, STEP:  8246
H   59.678703   65.823631   91.596573
H   72.742203   51.703793   98.041336
H   21.512102   67.154221   26.544365
H   82.860672   92.914421   88.171333
H   21.307825   33.710514   42.121643
H    0.142396   92.274590   95.374825
H   20.797695   18.146791   35.301105
H   71.766953    1.986459   51.074081
H   50.925453   93.473297   81.031296
H   49.532387   34.785343   30.584831
H   33.232193   98.038498   45.452827
H   41.115158   37.019817    5.970157
H   17.929817   62.865456    5.642614
H   46.788292   79.659401   84.764275
H   80.761909   33.459457   54.349709
H   69.969360   90.503563   48.551056
H   61.012764   27.379765   24.054266
H   77.400467   93.588768   13.679636
H   73.697418   24.282726   97.794342
H   70.352402   30.701223   77.758644
H   74.947395   35.302120   33.433758
H   52.932392   55.030670   17.055176
H   75.646217   27.560122   96.421707
H   52.886169   35.474335   94.653915
H   34.659248   32.211311   97.438515
H    8.726833   83.011398   14.896721
H   51.017662   99.699417   63.585094
H   36.768265   41.335102   39.341438
H   90.471886   97.233932   67.379234
H   17.181610   86.750717   38.921539
H   40.587696   61.489540   56.981804
H   86.414848   24.684078   35.890526
H   51.194675   65.165749   40.661758
H   26.515480   18.025887   24.360006
H   75.735481   35.332085   26.745298
H   89.448654   31.291677   93.502144
H   70.696983    2.547853   58.217861
H   23.170395    8.044619    4.339564
H   97.004448    1.752357   45.213432
H   86.512283   40.220474   86.812866
H   71.695938   39.122078   36.616665
H    5.285913   73.939850    0.934145
H   82.252289   12.953121   97.091225
H   52.808140   51.052628   86.985382
H   41.376251    6.549218   61.743629
H   71.683189   20.192986   16.661573
H    6.160293   73.283516    4.619086
H   56.690914   80.301117   78.793312
H    6.071241   49.515747   15.537159
H   98.866943   56.242832    6.971600
H   42.935383   73.545326   40.352570
H    5.883906   98.570892   32.738495
H   79.916206   69.821838   23.957335
H   85.733643   72.665970   95.690323
H   84.235847   81.245178   70.482361
H    3.866142    3.859732   11.913498
H   19.013092   51.611671   40.250740
H   12.041862   98.153938    1.156009
H   40.619350   87.191246   78.441193
H   14.868619   61.604298   29.074730
H   79.864426   95.094849   71.472145
H    6.251289   51.189468   22.248695
H   33.881229   44.591095   68.017487
H    9.277412   86.682495    3.258255
H   59.622772    2.249192   63.483047
H   94.784248   32.340141   33.752232
H   25.976763   33.448391   65.179062
H   10.758209   89.134453   60.409088
H   67.883179   57.281364   43.058548
H   97.496712   62.817699   84.353973
H   60.184071   34.343277   63.236885
H   94.229614   77.800194   60.473438
H   69.336472   10.431353   50.323986
H   48.680141   27.530861   13.204454
H   59.689117   40.457005   26.518789
H   20.596552   36.063927   41.078049
H   15.695441   12.087654   36.985718
H   19.390337   11.538113   69.838196
H   56.937317   29.297619    9.681631
H   95.134239   59.820854   10.520912
H   72.244301   14.591012   72.835083
H   60.068497   97.947067   97.144081
H   39.452324   45.020420   15.250028
H   17.461407   17.787184   10.273130
H   50.818832   33.083813   48.395744
H   61.513134   11.942374   14.410632
H   17.886553    3.800843   16.744423
H   88.647392   45.221291   10.079803
H   26.813259   35.047630   60.749153
H   37.281567   70.014908   18.992136
H   61.482990   18.691875    7.602543
H   88.419395   15.657557   90.647209
H   14.037874   74.939629   56.680420
H   44.209557   13.448110   82.813927
H   14.022469   11.102592    5.571402
H   75.007370   70.106506   41.532417
H    8.073919   40.899620   62.953697
H   22.360628   94.472282   13.342272
H   15.892392   72.410423   54.349285
H   51.401096   67.025253    3.376182
