100
TIME:    4.705, STEP:  4705
H   99.142982   90.548927   94.838455
H   70.534767   59.822365   74.771912
H   60.629349   12.400680   68.117058
H   82.266327   38.805046   82.266365
H   53.028793   49.884003   38.131958
H   55.063358   96.110817   44.698307
H    6.381974   79.042175   58.390133
H   50.082573   95.644775   76.196892
H   37.970055   33.926910    3.923277
H   46.264534   83.940193   91.931549
H   62.607391   55.558384   86.539948
H   76.264961   59.527962   58.021873
H   43.831284   77.069359   57.509521
H   22.117104   90.573738   15.292155
H   37.731407   49.757660   24.606770
H   12.345959    0.212419   42.485291
H   45.759071   93.170441    1.703061
H    1.681327   65.886787   36.426220
H   18.550358   75.734787   11.240808
H   65.753685    5.900084   36.670876
H   85.075356   87.819550   29.542805
H   13.453278   50.329941   18.604034
H   22.925499   56.356758   97.733734
H   81.895996   93.110748   57.639694
H   61.306183   13.028999   71.287331
H   25.098276   87.564438   47.980999
H   56.362213   46.896534   93.321022
H   35.547741   76.053207   22.293550
H   13.476958   75.966484   34.763557
H   81.404175   74.390831   57.422462
H    1.225410   43.961788   37.134315
H   62.833782   22.518639   63.698631
H    1.770504   24.241869   21.660513
H   76.898758   42.537506   73.537178
H   63.817749    3.258093   11.230751
H   81.635437   53.944584    4.635365
H   31.070055   32.229477   79.200974
H   69.524071   72.850731   54.459309
H   46.474033   78.903862   88.363083
H   20.035372   71.717598    8.213537
H   13.698441   17.624350   53.193462
H    8.762136   23.020395   23.845331
H   51.767757   91.714432   41.320824
H   78.913086   91.619141   40.765358
H   48.531368   46.255173   58.730244
H   17.386753   52.657490    2.274191
H   78.492477   80.711449   70.630409
H   56.490688   43.829941   59.696663
H    2.564390   42.781162   56.791405
H   24.555607    2.344458   54.589386
H   43.185658   15.406075    3.025030
H   33.785912   27.150167   65.188812
H    6.467218   49.289917   29.609568
H   67.732170   30.437881   39.434349
H   66.175873   70.924324   40.365688
H   99.453232    7.584519   32.457504
H   94.529022   53.785988    3.472034
H   75.711563   32.558815   92.364487
H   61.348900   37.567368   50.278229
H   48.536564   89.429703   29.789192
H   56.495819   59.766102   47.556427
H   31.924990   84.148605   82.468185
H   93.482658   86.222092   10.834496
H   66.124733   67.393295   99.396408
H   19.071203   85.063721   33.725651
H   12.309895    8.373425   24.379644
H   10.077311   11.027472   94.218979
H   55.359261   86.620804   91.128807
H   91.398117   11.715027   65.144684
H   25.709974   84.790527   91.825745
H   72.627357   75.271652    5.707019
H   86.018280   95.374985    1.099391
H    0.216001   85.577950   41.113052
H   26.633038   51.638561   23.598137
H   89.018318   35.347309   58.069057
H   36.887604    9.118666   79.342178
H   94.138260   18.747864   74.258995
H   53.029781   43.072285   74.280266
H   87.134911   39.698658   70.179695
H   68.783081   52.710247   15.581148
H    2.941549   77.957047   61.195644
H   94.346581   74.954788   93.347923
H   15.475725   85.803528   78.024643
H   73.845566   14.775915   33.687820
H   23.234968   54.585419   91.655510
H   43.007198   81.877647   68.512665
H   81.391029   61.261093   47.896133
H   31.688856   28.600527   46.813248
H   53.326035   32.204750   89.709969
H   50.353878   15.698273   92.410202
H   16.570702   27.488682   32.822796
H   26.421171   49.340126   23.178328
H   87.053215   68.693413   82.849411
H    1.983237   98.625244   44.052296
H   75.243980   28.284332   24.201920
H   82.535278    9.936600   24.429787
H   89.141838   37.690823   66.600067
H   24.136030   56.297943   80.745598
H   84.577850   57.131702   50.944618
H   31.456614   57.893276   44.492992
