200
TIME:    0.764, STEP:   764
H   25.572508   60.735950   24.299652
H   32.634583   40.527962   11.169837
H    7.155112   92.073547   71.158012
H   35.505600   83.098396   30.797226
H    9.646701   97.009949   46.124641
H   72.571960   38.592812   50.039757
H   10.951049   54.932335   59.793789
H   14.631173   11.512954    6.472789
H    8.708277   79.650543   34.936443
H   92.415421   67.558830   75.403816
H   30.457743    5.787739    9.520561
H   32.944611   56.009155   37.709846
H   24.035107    4.398766   39.815483
H   79.636940   55.417721   67.515923
H   94.323257   75.978371   41.689301
H   14.026848    4.376232   43.019218
H    8.857163   32.259998   89.990639
H   24.119652    8.357686   34.191494
H   82.459839   10.731482   50.197594
H   91.723335   72.508629   17.157887
H   64.373619    2.915792    1.833952
H   78.363441   68.843361   50.381790
H   79.313835   58.731552   36.563118
H   19.707130   92.836555   89.942986
H   26.022171   33.778465   26.712627
H   18.227331   85.591354   89.650063
H    9.043357   69.310982   70.150284
H    6.536248   91.745552    2.110065
H   33.138462   40.602486   35.270050
H   69.370438   34.801830   80.499863
H   12.677368   73.341225   16.835461
H   22.397289   75.787582    6.504375
H   14.462257   20.260653   79.579636
H   79.084084   64.149605   47.449265
H   22.841894   68.148911   30.232836
H   15.944662   37.974518   85.485176
H    1.304149   63.119217   89.888771
H    6.995952   58.309864   91.607727
H   33.676910   27.637161   56.079231
H   85.057510   37.533672   43.227631
H   80.660225   80.745438   18.917046
H   39.420975   32.118927   24.293182
H   67.267044   75.744545   69.785591
H   36.113907   88.683907   37.488743
H   46.680984   92.282364   63.273521
H   33.685844    0.201464   48.386745
H   89.848724    0.540062    7.667518
H   77.358833   65.542610   28.810013
H    7.345320    8.867271   61.544125
H   43.365704   20.166204   83.544281
H   65.743088   63.863762    7.102350
H    1.107495   44.717022   74.807533
H   66.310020   79.436882   14.775942
H   14.607790   93.241623   89.462898
H   55.019089   64.731339   73.826668
H   98.588554   59.440445   95.806793
H    3.935061   18.728371   44.033680
H   73.133530   70.760696   95.845329
H   17.124239   84.599899   19.799870
H   30.983952   93.046791   57.307556
H   48.722450    5.153025   26.926586
H   99.354362   17.666201   53.083321
H   85.883377   36.061127   67.206635
H   36.822441   65.899925   15.366982
H   79.771744   83.890778   39.357166
H   18.184324   36.918694   42.282120
H   66.601906   12.108886   96.661171
H   94.407036   92.641273   97.645851
H   35.161072   12.934356   55.347450
H   42.220623   50.762966   50.954609
H   58.235291   85.655151   87.297638
H   17.413593   10.048619   41.096844
H   94.124649   34.722118   81.949402
H   24.936743   97.446861   75.827797
H   85.525528    9.353919   42.974258
H   66.558479    0.577088   59.453354
H   93.212799   49.457474   64.733650
H    7.147125   15.511694   30.049385
H   15.515421   53.037498   23.328947
H   60.379513   87.744553   69.411285
H   65.607872   21.245916   93.354156
H   49.677563   59.166401   71.658134
H    8.955337   19.414141   74.948143
H    7.586464   78.994179   10.929730
H   20.248474    4.864942   42.932358
H   39.429596   67.440399   16.874817
H   59.340309    3.876009    2.972651
H   70.973885   99.041718   31.206326
H   81.724564   73.332596   79.057861
H   20.819572    9.534853   49.100674
H   19.277473   39.416309   78.423767
H   80.405434   93.132935    9.801395
H   72.152664   10.952347   80.806030
H   36.530781   75.607994   83.492760
H   38.402122   49.838097   89.763786
H   47.571999   39.424858    4.424396
H   86.413689   96.154625   20.896538
H   92.490135   36.580673   53.554844
H   25.144432   64.528915   54.738228
H   76.315422    6.441748   27.378336
H   33.245266   94.914429   93.614235
H   10.056828   84.584213   62.974190
H   34.041428   18.019747   37.825024
H   47.054466   68.906952   10.971477
H   24.644121   20.586517   42.076199
H    8.168184    1.117981   19.357737
H   90.480659   36.603207   53.820572
H   61.663380   54.393318   98.479500
H   86.113243   33.475288   24.470661
H   21.199480   20.754404    8.101854
H   54.088753   91.513283    1.164523
H    7.033916   76.522156   96.479881
H   47.993042   86.355316   82.537636
H   61.449150    8.100555   61.441788
H   46.363869    3.788468    8.399550
H   92.653938   90.469002    2.573467
H   11.030665   15.821155   90.288742
H   38.112576   52.788303   23.504265
H   38.762062   77.386795   57.642384
H   84.611031   57.133114   68.890518
H   46.023567   25.241520   70.349266
H   95.679993   15.066853   63.601692
H   44.869453   99.722366   39.574093
H   96.357239   48.462837   94.918327
H   61.236992   95.978416   75.482658
H   66.919792   76.688782   15.413917
H   82.361794   51.636581   50.817886
H   63.966972   91.679710   39.428143
H   98.916176   33.516094   72.948830
H   93.143234   21.665710   75.428703
H   69.761330   66.475983   23.436337
H   61.587059   91.248520   21.684193
H   90.726692    8.088404    1.273431
H   75.226685   26.437756   56.156139
H   30.312046   91.895355   32.338120
H   48.401749    0.954345   75.961845
H   69.760239   87.899788   81.424324
H   95.687889   47.859943   74.918922
H   60.009705   51.661606   71.426155
H   43.731789   83.959190   80.897491
H   76.559402   47.659134   31.836609
H   33.115555   56.932076   58.462177
H   38.160759   66.405190   81.709961
H   33.702278    7.559750   86.807655
H   64.932404   52.388626   66.203125
H   65.139702   71.003220    4.749929
H   57.124443   94.483055   43.529957
H   28.344307   53.913414   65.818626
H   79.193573   42.914375   92.735321
H   26.165604   94.395653   70.387711
H   57.751053   70.209061   47.388371
H   55.845245   92.610252   31.731354
H    0.518379   12.245358   85.070358
H   23.761497   13.170492   63.003483
H   34.391117   67.717972   70.232689
H   79.057549   44.828190   70.182861
H   64.796249   76.598557   86.960373
H   53.495972   28.252518   22.000385
H   88.399162   99.759872   83.171791
H   57.804905   35.563568   98.350021
H   59.103119   63.121086   69.483543
H   19.001101   20.340794   31.004471
H   87.774956   11.723614   37.014172
H   30.508986   35.573200   48.780472
H   53.936943   39.868591   14.973215
H   20.941734   47.766460   59.437397
H   65.876793   89.091621   57.776646
H   24.089962   54.773460   69.680801
H    1.193291   26.466146   35.619614
H   50.385811    6.505387   84.502594
H   69.354492   11.865394   35.932098
H   28.060671   45.983955   59.067230
H   47.797379   54.937809   75.680130
H   64.773483   62.004860   86.396591
H   47.083252   91.094711   74.592964
H   17.084465   50.492638   23.793350
H   30.034702   69.290802    8.827133
H    6.374138    9.700584   71.580521
H   62.200665    9.197980   63.006535
H   61.374443   60.076012   93.776939
H   71.851074    3.967332   29.536198
H   29.796858   30.745693   88.745651
H   41.507870   89.614258   16.448410
H   62.892365   26.189953   96.467690
H   92.299240   65.606873   76.238022
H   10.230114   40.645340   86.576759
H   49.597961   95.549171   10.875746
H   65.246887   89.420357   43.862114
H   91.443153   63.510120   72.532120
H   59.142334   55.422878   72.323380
H   72.851807   13.687874   75.559517
H   43.357277   99.169373   17.950056
H   15.739657   29.990173   69.810585
H   25.949259   84.443634   43.873478
H   66.912491   30.850250   20.102226
H   76.607437   11.669239   22.387318
H   12.944366   99.847557   21.153059
H   13.680784   86.991905   32.188835
H    4.925651   13.078089   54.581947
H    2.542457   17.239666   90.468796
