100
TIME:    7.920, STEP:  7920
H   81.725090   95.719566   91.895035
H   81.745804   34.037334   77.487259
H   15.908480   43.700089   30.370895
H   82.805954    6.345798    6.039814
H   24.229021    7.580180   50.961090
H    5.198239   92.627769   63.091125
H   37.882969   96.133209    9.807484
H   97.389908   73.781944   81.005913
H   58.939156   24.817509    1.550660
H   58.436501   30.104464   17.819366
H   63.555923   84.921097   76.854523
H   53.558533   20.679028   29.174355
H   38.717690   82.598618   38.039158
H   62.930107   80.664223   59.956707
H   76.802315   62.579391   70.027374
H   83.076813   19.016968   75.611603
H   87.227669    5.818116   94.377197
H   70.431381    9.451796   24.980022
H   68.618591   10.605710   80.617859
H   79.137131   37.623287   55.563026
H   94.292702   67.757080   42.280666
H   21.678453   54.597900   44.817108
H   79.998787   30.210215    5.749030
H   83.175995   31.574434   18.865437
H   46.319160   58.065575   95.030922
H   10.263912   92.621872   45.575447
H   79.128952   13.251267   57.115932
H   64.274040   26.118521   28.564871
H   83.383415   67.656357   82.789818
H    4.681712   94.819138   13.006008
H   27.756731   32.257683   82.773888
H   65.830925   33.690166   66.070000
H   28.230722   89.017830   11.293103
H   12.740367   47.901924   38.093536
H   83.848671   60.014885    6.910285
H   61.109699    5.757016   94.526863
H   39.430080   14.487555   32.530239
H   36.644279   14.010748   81.333534
H   10.765149    8.854509   76.805626
H   17.218319   70.740143   61.164764
H   93.976120   27.937216   28.936247
H   32.759575   72.661438   84.290001
H   79.446747   10.997574   73.542580
H   73.624039   45.579247   55.110340
H   69.653603   19.410587   33.846222
H   75.891502   13.976272   15.337149
H    3.611864   55.554878    1.488221
H   56.671017   76.943420   58.622265
H   96.541756   76.515266   28.541416
H   92.022217   51.280903   29.765617
H   42.957767    5.018328   36.915283
H   90.040207   28.821257   54.138214
H   73.156044   67.931580   42.890297
H   93.284729   77.983566   81.304459
H   10.192482   52.676414   67.711639
H    3.460109    4.202652   23.011307
H   98.346436   61.018196    9.245385
H   36.315842   28.941381    9.553412
H   14.907684   73.417229    3.467400
H   36.380295   36.545933   38.346947
H   59.300396   10.255455   96.891151
H   17.821663   54.223831   36.999352
H   11.748927   66.836456   90.372284
H   86.892143   84.906647   12.109683
H   46.681961   28.286741   33.124496
H   14.810150   48.546623   14.476518
H   52.132263   22.177883   49.440166
H   33.277306   70.490532   44.824402
H   51.635010   80.705650   63.505676
H   90.875832   46.444576   85.045410
H   70.536644   56.525574   67.146736
H   21.074936   88.624413   36.579075
H   90.591934   26.557001   58.683407
H   55.855663   48.162312   32.573425
H   43.985046   39.976978    1.801511
H   12.889024   15.170109   63.012512
H   86.087608   40.304741   31.203188
H    4.075913   32.853268   51.832676
H   41.305374   30.255184    6.043505
H   11.121293   77.579338   38.606056
H   65.862190   11.218392   53.350494
H   35.607056   95.832962   24.417336
H   18.831888   39.568516   84.203873
H   95.032967   89.890503   40.047314
H   66.692032   53.476223   79.997887
H   69.015305   99.967834   91.771927
H   96.113670   27.503960    1.199424
H   83.404411   71.308655   13.459885
H   20.046879   53.199089   63.415413
H   66.105347   83.425797    7.338886
H   48.141743    1.089579    0.717723
H   64.298698   91.139389   84.434227
H   93.140869   65.160027   31.470339
H   12.703653   93.670128   60.832211
H   19.659668   40.304604   98.080475
H   48.081131   82.980164   58.370644
H   33.949608   22.191685   81.702080
H   22.989885   78.340416   19.887293
H   31.422356   71.002678   81.654457
H   31.152941   75.392136   34.781590
