100
TIME:    0.124, STEP:   124
H    8.937055   10.649861   99.032486
H   97.820900   11.467834   85.822418
H   81.894928   82.825035   21.883904
H   81.497421   27.541937   33.366142
H   94.060394   82.696671   62.343102
H   26.093498    1.078693   91.025475
H   46.471081   69.711754    0.149446
H   10.140142   99.330292   96.808235
H   50.579842   74.371262   92.281441
H   71.451881   18.167488   12.544504
H   88.720856   71.231949   27.805489
H   51.109081   29.905983   84.102867
H   35.374901   54.205246   12.804612
H   48.942280    4.694946   66.677620
H   82.011147   58.945244   44.812359
H   96.537262    0.891324   22.746716
H   14.096750   90.197426   84.644768
H    3.794563   88.670410   95.247360
H   47.195175   83.555359   69.894165
H   89.292824    2.932299   24.647547
H   56.918213   43.873207   53.875809
H   74.237709   44.263603    8.696852
H   84.088448   93.613731   28.803177
H    7.520628   38.168949   97.864883
H   25.147898   76.339211   37.473953
H   46.086658   23.918419   77.548454
H   51.386631   37.322575    2.426955
H   22.077980   62.227077   70.874771
H   13.867442   60.342159   51.310455
H    5.748725   87.770676   93.246635
H   20.979555   33.161995   99.599724
H   73.586823   49.084282   87.784798
H   79.092712   59.409706    8.967854
H   83.341347   62.358826   66.527428
H   77.689613   49.546768   32.279182
H   83.336296   94.226555   20.217665
H   91.692787   99.993538   18.235603
H   58.863327   56.684689   31.191721
H   45.146351   77.860954   30.241882
H   51.513531    0.574231   47.790535
H   26.767719   60.433506   45.259846
H   20.476761   17.421808    8.625991
H   12.309737   64.243530   10.430182
H   71.441330   14.849904   92.855728
H   45.899071   26.999477   66.718567
H   76.367760   65.535210   83.804558
H   37.389393   32.429844   28.682806
H   56.246037   96.658798   76.250366
H   68.652092   22.179714   39.527847
H   28.490461   32.636753   74.991592
H   43.531536   57.673225   54.730572
H   11.159432   52.233162   65.922867
H   11.451530   22.727722   95.667946
H   73.813599    5.179053   37.287556
H   30.887932   69.376099    1.458374
H   93.721390   12.401966   88.405548
H    4.113695   85.968849   67.780861
H   16.826418   65.176292   10.360960
H    0.057564   44.008301    1.963496
H   50.838608   37.319084   60.076485
H   67.522720   72.803207    4.728435
H   94.510132   26.791183   89.743744
H   82.644112   98.697212   25.051239
H   51.554779   42.469009   23.774084
H   37.243446   50.941059    7.108700
H   93.727974   36.108753   53.517712
H   77.619713   52.648289   73.048935
H   71.800209   24.629131   72.130516
H   63.084297   40.876472   52.456371
H   32.898735   54.381500    1.470012
H   18.095160   86.967339   60.660221
H   63.741566   47.410225   65.701485
H   98.906235   12.173786   58.570087
H   27.461624   41.532986   95.838921
H   68.148849   28.820135   10.797818
H   28.589430   15.519407   87.586014
H   78.213806   15.796646   93.226257
H   37.806076   42.612263   21.287975
H   67.497948   53.137005   19.071098
H   93.444260    2.200434   10.238434
H   13.308609   30.563967   87.400024
H   50.627842   45.037369   76.411804
H   25.641903    9.327052   41.710175
H   58.700920   22.772434   52.104164
H   46.292908   41.128708   35.731773
H   48.443638   13.604770   50.395489
H   75.436394   94.337105   29.455990
H   57.951324   95.366432   94.449287
H   58.256538   87.268364   27.186470
H   55.371803    4.185046   28.644594
H   29.097170   80.126617   36.080395
H   87.461372    4.832609   35.887474
H   93.240456   31.346964   28.507936
H   59.213707   20.753714   35.179554
H   54.447910   38.622723   18.936611
H    4.163484   90.834953   61.044167
H   52.759666   74.796532   30.057564
H    7.320625   17.293457   54.051208
H    2.805054   37.384808   34.664845
H   46.942333   75.517937   85.742905
