100
TIME:    0.272, STEP:   272
H   98.928627   97.077614   98.896988
H   93.704018   19.492142   95.158234
H   84.437775   93.472923   20.146141
H   81.522263   21.443960   25.253668
H   92.734772   94.559525   58.330101
H   23.798500    0.917612    5.682169
H   38.714947   79.704735   11.723424
H   98.507629   12.133989   83.220039
H   46.941719   60.141708   82.965950
H   67.407265   20.291985   18.340433
H   74.954254   77.187088   13.549400
H   45.459942   37.324501   73.567894
H   25.960812   45.251083   98.094719
H   41.614094    4.238628   77.939766
H   83.811012   45.726280   37.697582
H   90.587097   87.946175   10.461323
H    2.198104   99.984901   98.120049
H    6.957167   81.473206   90.116501
H   49.499771   89.763428   77.692078
H   85.286598   99.828857   34.744408
H   48.135681   29.138924   49.859421
H   88.428871   44.458946   96.094856
H   82.112434   92.410057   24.568298
H   93.769760   39.943974   86.873734
H   19.855005   64.602821   38.566971
H   45.411427   19.505135   63.677971
H   38.623844   31.169910    5.363734
H    9.590706   69.135223   75.766251
H   17.085709   73.770012   44.314240
H   11.423553   84.107712    5.012178
H   26.801455   46.434029   87.888176
H   82.931671   44.995628   74.083687
H   89.517029   48.581154   22.300863
H   89.594582   48.795471   60.292259
H   74.010841   38.359146   41.290932
H   96.204094    5.852564   19.708418
H    5.887722   94.574074   29.897717
H   52.746719   53.975857   41.635235
H   38.492268   74.701591   16.056366
H   37.574169   86.719521   59.435463
H   16.653919   65.511635   48.747791
H    7.175369   24.064600   15.579017
H   13.584266   65.131042   21.120266
H   61.990341   17.330084    7.326653
H   33.061760   21.160076   79.383118
H   74.477562   68.317436   84.384941
H   38.952137   40.414066   29.947454
H   56.253941   98.183151   85.407776
H   72.978996    9.922787   33.623520
H   31.594496   34.889408   64.639542
H   43.523869   43.383995   56.284809
H   18.351557   38.499306   56.206749
H   14.521408   23.585876   87.072853
H   70.387756    2.764082   43.818562
H   19.105247   82.350037    2.714201
H   93.906570   12.246143   83.367279
H   13.496088   81.698402   81.856850
H    5.805579   51.199669    6.548666
H   11.729614   50.261536   90.601883
H   41.068985   48.695320   55.873253
H   76.858536   65.919907   93.188873
H   89.257324   25.413620   83.047882
H   92.682259   88.604866   14.897887
H   61.718262   43.274094   19.755438
H   43.118416   39.119984   20.891676
H   84.636055   28.751209   62.268627
H   65.745567   57.764469   80.194199
H   61.576881   33.093735   79.205772
H   70.460045   30.242134   43.173626
H   35.896629   61.825989    1.158790
H   13.395071   76.897575   58.885197
H   51.538837   42.498421   76.536812
H   89.256516    4.853504   54.775013
H   24.204025   32.166683   87.042839
H   75.285080   29.030722   22.017490
H   32.088665   25.004835   77.626907
H   91.650696    2.968983   95.845886
H   44.759384   32.935055   29.461552
H   74.591270   52.704540   20.721352
H   86.186081   94.140388   97.488220
H   16.204617   32.095623   96.245789
H   61.732471   46.003922   64.036316
H   35.006329   11.797351   55.806488
H   68.881927   35.436985   38.585976
H   39.085953   31.870132   21.384991
H   45.033604   19.044451   60.671886
H   85.320976   83.576302   36.513180
H   60.333832   83.517128   92.911385
H   61.327827   79.027824   25.975456
H   42.287209   98.095139   33.935436
H   35.153934   88.118744   39.205883
H   98.411873   15.963209   38.706963
H    2.736463   35.781219   39.957695
H   73.518166   29.731024   45.157856
H   51.889256   25.365368   22.337048
H   16.387711   84.990471   53.399818
H   41.011986   83.290001   21.546028
H    7.863888   18.553589   51.683380
H   95.754753   38.022778   22.267902
H   56.133617   71.717216   71.488510
