100
TIME:    6.086, STEP:  6086
H    5.751352   63.904961   93.574112
H   32.393745   34.655453   61.848652
H   84.376434   11.755351   51.904530
H   82.498123   81.906647    6.567794
H   40.659302   60.577164    0.689702
H   33.643276   94.614677   81.463585
H   34.003277   72.294380   66.386208
H   41.538696   15.118796   49.398129
H    4.022438    1.149208   16.994532
H    8.530146    3.769593   46.009251
H   34.150131   11.125893   53.514618
H   23.554832   28.750156   59.720818
H   55.706589   93.557457   20.286064
H   53.738319   86.317116   20.387051
H   54.526100   26.401257   58.225368
H   56.819183   79.425148   27.850121
H   34.707283   84.512306   27.420935
H   31.213232   98.694489   88.553261
H   40.058025   33.668724   83.996124
H   28.549889   76.568398   30.695765
H    3.124847   50.337391   92.059196
H   45.851089   52.163239    0.999180
H    4.485766   45.125175   58.223007
H   53.581409    9.634493   55.074871
H   11.914432    3.508720   81.486366
H   18.802900   46.742767   18.117691
H   37.276199   89.489090   20.721937
H   19.023052   40.513603   67.945969
H   43.505333    1.261842   69.483734
H   34.356647   40.211418   67.208145
H   55.579338   67.798088   27.873985
H   50.030949   84.361938   35.852531
H   99.046135   23.201395   46.071899
H   35.250374   15.977014   15.357824
H   29.490444   98.864174   95.323242
H    1.683544   62.110420    0.291839
H   63.524643   81.652466   88.018410
H   12.447872   47.578091   51.912785
H   88.179993   48.812492   54.533546
H   89.960266   42.432499   16.867849
H   19.316582   65.005836   85.729225
H   87.318970   65.469391   90.660759
H   63.663120   99.995880   41.072144
H   90.732407   14.796164   75.792198
H   28.740665   91.770187   76.905624
H   99.566490   78.997971    7.886244
H   89.281540   55.815567   83.884941
H   56.564442   58.053802   45.145100
H   42.928726   28.407394    1.699890
H   53.519604   23.364164   58.000092
H   43.083698   82.079285   17.583130
H    0.901399   99.003754   74.528053
H   35.114323   57.297424   49.404171
H   35.753593    7.901910    0.375665
H   56.218712   91.952682   52.113544
H    1.175865    6.131842   85.444992
H   82.077568   13.937966   34.816780
H   72.879547    2.139607   56.794296
H   70.265808   95.916985   44.259758
H   57.404404   95.577591   90.510277
H   43.610523   95.545303   39.883152
H   82.913887   71.294449   19.981133
H   87.239128   91.985023   16.135162
H   60.955582   74.916138   61.908039
H   73.887878   74.766159   62.331745
H   27.473480   39.719902    6.035337
H   99.276840   58.769009   60.894424
H   59.964119   65.602150   57.148594
H   60.229259   12.485176   78.529846
H   53.684753   54.251381   88.917755
H   28.775330   81.309433   89.142647
H   72.147842   49.542542    2.209800
H   10.172398   17.268478    5.700905
H   96.234642   64.234703   41.543602
H   55.600323   37.317577   62.758194
H   69.537483   97.627861   86.418762
H   19.523952   99.051613   98.681892
H   17.911678   52.772545   50.547768
H   53.357456   35.642223   85.583611
H    1.062365   77.486244   96.606926
H   29.965860   92.244125   43.734623
H   97.984055   83.939362   77.846977
H    2.826922    8.898185    9.542809
H   68.855644   32.951683    7.555603
H   55.991661   68.203499   57.782928
H   11.219501   32.602333   64.413513
H   73.624901   60.851006   13.747473
H   53.908623   18.065435   32.475433
H   81.984482   55.313286   78.415169
H   28.254248   58.883251   41.776657
H   73.086845    2.058858   61.986980
H   28.601267   53.204514   49.487251
H   75.577850   10.128568   89.644302
H   35.455936   82.403755   37.168579
H   51.368965    4.582064   55.935642
H   96.600204   55.401886   53.099167
H   79.524437   16.943476   87.177704
H   26.529940   87.593826   56.703362
H   18.789856   63.084652   35.271042
H   17.236658   22.458637   11.456363
