100
TIME:    8.390, STEP:  8390
H   49.940422   52.618065   91.464737
H   68.765152   59.507381    7.120942
H   23.987322   77.514328   24.854118
H   82.884842   86.981804   80.278755
H   20.017481   45.252750   38.217102
H   97.909912   92.118584    9.635467
H   13.250737   27.870790   46.562092
H   60.448837   14.444076   37.852036
H   47.385658   79.628326   71.967575
H   45.599281   36.852970   36.223152
H   19.837662    3.832563   31.582571
H   35.618698   44.237835   95.720161
H    8.747227   54.150002   91.332077
H   39.658165   79.215553   95.722038
H   82.510933   20.596664   47.425026
H   64.179565   77.908836   36.597931
H   49.433174   36.903812   37.163155
H   80.478836   86.581688    8.688272
H   75.940826   30.324108    5.380784
H   66.472031   27.643179   87.562843
H   66.402229   20.966061   29.525572
H   66.737816   55.221832    4.792273
H   73.723610   26.389528   92.301834
H   39.505920   37.196991   83.959824
H   29.509125   20.791023   98.501991
H    8.047794   78.766281    1.345407
H   38.599815   93.714066   66.441696
H   24.618151   48.056538   44.101814
H   93.602989   10.298641   60.572105
H   22.702789   83.186752   50.369293
H   46.255543   74.402657   45.588982
H   95.507133   20.705929   22.559715
H   61.338352   54.629860   53.634415
H   32.600204    4.829309   18.293905
H   72.151741   24.429253   35.506893
H    1.966394   42.571304   93.049507
H   84.508995   97.274178   69.564537
H   17.218552    5.409273   14.500869
H   90.926811   98.614952   31.258629
H   72.948563   26.739367   98.141968
H   61.854385   44.062630   40.009243
H   93.150299   74.504547    8.285539
H   83.491547   13.816921    7.492491
H   43.613682   53.470718    1.065387
H   28.885757    0.868288   74.066093
H   69.824303   22.939018   17.246595
H    7.286047   81.114571    6.001965
H   56.699703   81.784271   87.703224
H   10.280167   37.590088    9.792683
H    1.889861   58.434605   96.903252
H   42.925495   59.643227   41.870880
H   12.882513   85.209320   23.285351
H   82.902290   70.656799   15.593992
H   82.398193   70.317093    2.044650
H   72.770515   93.864075   71.706238
H    4.045494    3.708258    7.011398
H   28.141632   47.456642   53.946297
H    1.319482   84.555061   97.446922
H   51.977016   93.275475   67.386749
H    5.366269   72.672165   24.979027
H   88.947922   88.397583   60.244488
H    1.140417   49.849136   15.733242
H   43.657963   34.764923   58.142975
H   19.165657   87.466919   99.348526
H   65.338699   90.748505   76.892960
H   85.938057   25.181450   42.266636
H   14.422991   38.426296   72.131210
H    0.810917   97.369804   67.293121
H   75.059448   46.934441   34.026688
H    0.421282   70.050919   84.048553
H   55.610462   24.544991   61.509834
H   82.370972   73.018944   71.028732
H   59.947556    3.308457   46.631481
H   45.510586   18.417152    4.648798
H   66.625885   40.669041   37.437000
H   24.001215   45.293541   31.389170
H   28.774109   99.623779   39.540039
H   26.155169    2.122829   77.792297
H   63.842224   28.874645   11.288656
H   88.072227   51.976616   98.115318
H   75.063393   16.080759   81.441772
H   70.874252   98.880905   85.096474
H   48.561089   47.428623   28.964260
H   27.368328   30.109999   97.121025
H   43.807358   24.076122   34.436516
H   58.198559   17.231743   24.410431
H   27.503984   93.330803   23.610878
H   90.963310   33.697731    8.586761
H   29.802090   27.030149   59.571419
H   24.549833   64.091080   24.139780
H   67.376060   26.466900   10.643577
H   99.073936   26.487339   93.391594
H   23.268528   79.259453   67.816162
H   58.125938   22.184437   92.523643
H   11.532417   98.203781    8.880209
H   86.901169   64.419983   34.094673
H   96.643944   49.163536   54.672203
H   22.082674    1.597870   10.451220
H    9.032804   73.032249   42.287395
H   60.345066   63.329655   89.504623
