100
TIME:    8.917, STEP:  8917
H   14.301969    4.290308   90.982254
H   54.210251   88.062958   40.350460
H   33.045940   15.428649   18.668285
H   82.973297   65.270073   51.392357
H   15.295179   87.494125   23.928703
H   89.739868   91.547646   61.827194
H   85.629890   63.457924   87.774178
H   19.027679   60.034725   89.464226
H   34.430992   28.959457   38.793819
H   31.205095   44.419910   56.857338
H   70.817413   25.036350   80.818520
H   15.503181   70.653770   58.207115
H   75.142120   22.253860   38.960480
H   13.565207   77.591194   35.827976
H   88.911873   73.522438   22.082611
H   42.990524   31.815636   92.851624
H    7.054891   71.760078   85.138039
H   91.748276   60.937721   90.419510
H   84.151077   52.433887   33.143703
H   52.274273   16.451586   23.443384
H   35.129295   68.502533   15.221964
H   17.261820   55.921432   59.913361
H   66.687401   22.105482   77.224243
H   90.539993   43.501434   44.820446
H   10.661851   78.997955    2.392874
H    5.562002   63.230331   51.753139
H   93.155952   71.809341   76.895493
H   80.150787   72.655121   61.523468
H    5.062262   58.111904   35.659904
H   42.909859   70.143631   92.264893
H   66.997704   21.660667    3.894418
H   28.782001    6.146390   73.772728
H   98.457657   16.072266    1.110735
H   54.866791   56.532837   96.093163
H   59.036247   84.527992   67.571457
H   47.776829   83.849808   91.392982
H   35.055527   77.974861   11.089984
H   95.436745   95.765862   51.688240
H   68.684349   87.131859   80.189026
H   23.312056   77.404076   39.605621
H   25.837381   62.143677   52.425137
H   48.737747   76.571182   35.189754
H   88.026886   16.978500   45.556599
H    9.964520   62.320259   52.590557
H   83.171860   80.081154   19.163282
H   63.021873   32.988934   19.387613
H   11.406337    9.774771   11.062811
H   56.731869   87.212204   20.310566
H   25.683434   93.944862   88.771149
H   12.951786   66.457115   60.057209
H   42.889309    8.764484   47.427475
H   38.495693   36.307400   88.690346
H   93.830528   73.712524   84.987473
H   70.191376   61.719788   25.298317
H   30.810528   40.048164   76.185287
H    4.701872    3.153905   89.071060
H   61.549553   32.250389    4.068294
H   62.077576   34.786949   83.873070
H   93.542915   15.543637   26.927126
H   70.587761   13.177831    9.989891
H   22.191858   63.887470   19.157047
H   82.436150   44.943893   91.888588
H   79.436356   98.802513   22.005005
H   55.355183   90.337692   85.042908
H   86.254333   48.658443   25.970324
H   53.563454   98.983238   73.426994
H   72.140793   56.644047   97.574142
H   64.407562   27.510635   92.486771
H    1.322769    9.067574    0.973026
H   11.124633   96.523148   82.930801
H   38.872326   88.686729   55.189308
H   38.973953   55.520897    9.658864
H   25.586731   77.238609   33.117939
H   33.910892   85.062721   73.335884
H   92.012527   41.445034   77.394623
H   36.461334   79.069572   95.928818
H   76.636551   54.012180   48.888145
H   50.911037   67.665504    6.901264
H   89.116264   27.326679   17.170122
H   62.227226   23.268270   52.713676
H   85.380486   21.532816   12.940248
H   10.421078    2.300857   41.007675
H   81.894478   56.241978   79.153328
H   63.623154   75.206154   48.986568
H   18.147308   91.108932   83.350571
H   46.068134   36.589836   61.006760
H   62.701115   55.013618   48.740196
H   99.438927   91.527321    3.122494
H   40.738773   97.688484   55.261238
H   77.956680   42.407509   42.977554
H   88.943047   54.921329   21.772850
H   38.066601   66.123032    3.433999
H   57.050373   95.068810    8.569880
H    9.059153   54.156971   28.057348
H    2.419829   50.999760   20.989111
H   30.429260   43.608887    6.874258
H   54.812675   79.407173   24.363728
H   21.065439   27.673958   99.870750
H   83.927818   75.307961   98.144417
H   93.081085   49.808071   38.737377
