200
TIME:    0.140, STEP:   140
H    6.398345   62.806873   13.629639
H   27.072981   31.418205   85.837578
H   20.233677   64.761169   40.422661
H   14.471692   75.804939   47.114670
H   16.271893   81.194763   55.096260
H   92.871765   55.529152   68.509636
H    1.910434   55.375084   47.715786
H    0.647677   84.568146   28.621906
H   83.367348   89.005402   50.158916
H   14.381405   76.299644    0.016850
H    8.708092   92.457954   89.801575
H   30.364288   39.353699    7.977434
H    8.719798   83.689095   65.390190
H    9.130474   52.785030   37.447079
H   24.449942   71.174782   43.224640
H   32.215199   30.086620   56.480217
H   79.503128    3.035049   20.287205
H   38.936829   78.359756   45.300686
H   61.698246   33.322186   41.011742
H   89.738106   81.077965   41.347218
H   56.884972   71.766342   30.421925
H   92.255287   44.992043   74.428299
H   97.999748   63.268539   51.535652
H    6.501752   87.165657   91.901131
H   98.899956    8.682037   48.978619
H   18.743872   57.898640   10.259314
H   96.959419   56.790226   45.061172
H   92.215363   66.004219    0.468147
H    6.856799   59.569283   38.923920
H   97.568314   18.085474    2.084987
H   13.492050   47.271397   16.072552
H   33.744518   61.162582   91.141121
H   29.539528    6.833763   71.957687
H   99.736183   63.468819   36.542404
H   52.787327   93.933090   34.979740
H   36.327782   52.201996   78.329781
H   83.394287   76.587357   85.204201
H   37.861423   42.168568   19.663635
H   56.771271   49.981472   42.208809
H   91.041763   40.099712   67.602631
H   80.474556    9.895119   98.204880
H    8.361895   45.203827   42.796303
H   78.502396   90.079140   46.615055
H   37.504044   58.377464   15.171866
H   25.360373   73.244156   40.755211
H   42.467033   16.440994   41.600307
H   78.089691   31.111397   93.986320
H   92.550362   65.552132   51.242630
H   83.213028   32.547024   61.094234
H   65.695786   17.350225    9.943186
H   80.587082   71.761833   31.831821
H   24.960825   33.976788   61.391296
H   49.480156   97.284019    6.619926
H   23.894897   80.073410   80.222298
H   81.431686   78.608902   94.007454
H    6.587584   74.813591   75.373688
H    5.715871   16.367043   50.727283
H   66.316147   56.254719    7.108316
H   30.291262   72.545700    4.707872
H   45.416142   96.550697   68.842834
H   50.743385   17.327433   45.158180
H   88.139969   16.187990   48.299809
H   68.692337   23.134897   88.258636
H   21.703133   65.009666    1.434809
H   69.740860   74.588287   13.840387
H   42.662354   12.676128   31.065811
H   89.910500   25.271324   83.769081
H   97.901421   91.222572   85.291725
H   12.965553    4.501891   63.245522
H   45.812603   39.887051   50.987934
H   58.509033   74.862549   70.606476
H   34.950779   26.450350   45.464825
H   74.319962   23.934277    2.844137
H    4.607516   11.162721   57.661633
H   77.927383   99.252724   72.314713
H   50.786140   22.607105   63.530930
H   95.850250   26.227434   73.560066
H   30.259121    4.148993   51.387032
H   10.770290   25.238050   37.153271
H   69.782898   91.224655   99.004059
H   39.123867   31.792150    2.617969
H   22.239449   70.388496   90.948662
H   11.389861   12.569385   93.205589
H   27.935061   58.589638   90.592255
H   42.469238   98.266418   60.616135
H   21.849869   89.273163   29.864502
H   31.373331    2.575731    1.542072
H   76.163094   22.266153    7.670412
H   62.629135   71.801949   76.802406
H   23.945000   81.564888   55.965664
H   45.434738   34.029530   81.199280
H   84.751991   87.658081   96.185837
H   42.509251   17.989914   98.577881
H   64.512085   98.026329   66.358849
H   22.590988   58.278893   63.774895
H   73.413307   25.473503   33.763416
H   77.949089   17.737959   94.022430
H    9.643755   26.884792   47.646763
H   39.283836   70.779770   52.526863
H   65.465691   96.302322   27.225992
H    5.404645   77.661499   64.230934
H   86.853737   75.143661   66.416206
H   21.106489   40.824432   29.105328
H   17.070719   67.754852   86.191269
H   25.471300   28.786896   21.845425
H   83.464211   31.668856   48.572548
H   60.921215   28.855097   56.724625
H   65.340187   30.434883   22.608374
H   70.255211   41.351936   94.297081
H    1.154394   29.454660    5.047839
H   45.878853   96.935768    0.725493
H   81.978607   60.830269   89.372093
H   58.830872   79.114227   96.110512
H   63.562920   21.553223   77.532715
H   67.187355   77.804443   30.278938
H   18.119503    8.722803   74.423126
H   36.686420    7.034577   83.014328
H   41.278469   22.074375   35.977409
H   15.064620   53.959187   88.481979
H   68.143623   44.679012   45.612366
H   39.510872   21.094913   90.796654
H   22.603901   29.848957   45.246651
H   29.825506   26.040096   21.062651
H    5.550643   70.917610   22.244286
H   79.908623   11.428025   96.120476
H   44.058712   59.616146   27.462194
H   97.872292   48.723007   74.916763
H   77.616020   86.785667   34.158001
H   91.237099   56.103436   87.169167
H   62.898239   24.623322   64.797966
H   44.572243   88.756256   99.589798
H   85.538353   85.059555    6.968760
H   92.764290   77.729469   96.631287
H    5.824090   10.439003   48.476089
H   99.486008    3.178259   61.012070
H   65.021500    1.755191   85.154839
H   68.727158   86.309700   50.360481
H   90.365379   67.342873   84.778419
H   43.699402   42.935165   71.573738
H   43.393776   13.886054   98.236115
H   45.666943   66.009674   11.679753
H   61.841873   37.972420   43.915730
H   58.220146   54.920399    2.757136
H   62.295296   30.147652   76.467323
H   35.601467   73.083572   45.798588
H   42.276115   60.252632   34.635521
H   42.366142   97.215721   47.997913
H   45.383003   77.141075   69.398705
H   62.511936   68.967087   98.938568
H    6.262673   87.565414   93.737709
H   79.745003   59.611645   52.099125
H   29.577959    9.876677   51.286102
H   71.530212   35.577755    6.975219
H    7.266402   98.847214   78.423683
H    9.647160   51.238125   58.943901
H   60.533501   43.280949   50.984406
H   58.264507   57.884853   79.571701
H   44.624329   38.264359    7.381324
H   16.958601    2.111129    6.313326
H   64.800545   61.024017   74.403488
H   52.973663   88.472038   86.074730
H   48.299236   23.574528   36.410294
H   60.914852   38.929764   37.273632
H    7.604082   17.241962   75.477356
H   59.911674   18.695189    8.841974
H   10.190787   67.620705   62.848469
H   76.621788   99.184395   51.161594
H   23.544857   26.382774   43.877583
H   92.714165   28.495413   37.093063
H   21.909431   11.214356   91.529449
H   81.275391    4.444587   35.984467
H   49.617531   69.161102   57.151031
H   35.740799   81.751114   93.237747
H   72.454185   76.941437   71.927689
H   76.085693   95.788803    3.933132
H   97.819809   47.120689   23.190805
H   36.445042   49.797295   82.724770
H    0.843727    9.105492   63.601513
H   78.158943   23.704241   70.304428
H   91.057457   53.382408   84.974327
H   83.243530   81.605888   44.044357
H   17.210646   29.983974   65.965500
H   70.238724   90.269516    4.090822
H   49.303490   25.035135   73.511391
H   84.229782   92.671692   78.808823
H   97.166924   35.379959   83.453712
H   27.870161    6.237509   97.049576
H   95.225281   62.988804   22.027515
H    9.514305   60.727467   65.400528
H   47.795105   58.817287   64.439590
H   43.043125   34.332832   80.015572
H   48.472694   82.211609   25.898115
H    1.879243   15.144988   55.515488
H   36.850697   59.539764   31.297911
H   88.326309   58.721966   22.143394
H   75.084000   10.138065   30.936420
H    8.796569   82.832664    0.091507
H   31.815718   99.393639   49.786919
H   13.246833   11.332087   82.489418
H    9.050770   38.380573   99.138107
