100
TIME:    7.830, STEP:  7830
H   87.811516    3.972920   91.977432
H   84.231461   29.160091   71.812820
H   14.361467   37.225021   31.427299
H   82.790848   10.054028   10.973156
H   25.035486    0.366367   53.401428
H    6.594018   92.725273   54.177780
H   42.599537   90.056396    2.769360
H    4.463737   65.995384   89.269005
H   61.151527   33.470901    7.215896
H   60.894691   28.812197   14.295158
H   71.927505   81.299728   85.524109
H   56.993820   16.167767   35.580605
H   44.456673   88.046463   46.982716
H   67.386436   80.941628   53.107418
H   75.709175   70.618637   74.355988
H   86.695435   26.888672   83.082306
H   94.464912   99.865479   86.184143
H   68.507401   13.831049   28.099796
H   67.216461    6.829873   75.875885
H   81.562363   39.534222   49.435402
H   99.633430   76.716431   44.723064
H   13.050065   54.478424   52.481445
H   81.200417   30.941835    8.324122
H   91.537964   30.497774   25.549587
H   49.538155   65.203140   94.366249
H   10.688259   95.275070   54.045219
H   86.889420   16.992582   55.329967
H   71.868340   21.917624   25.589979
H   81.426476   59.490772   87.044273
H    1.230837   97.046616    5.851480
H   24.214670   24.187206   89.894402
H   60.148251   36.176510   74.401756
H   21.891268   95.602760    3.185192
H    8.937552   56.149910   41.885193
H   86.088509   66.829155    1.434393
H   53.286060   98.707611   94.809761
H   30.798210   17.783796   25.438566
H   40.363838   15.657839   74.982063
H   14.564187   10.815226   85.527397
H   25.695301   79.165283   54.083389
H    0.127082   24.849371   26.815886
H   40.344261   72.308502   79.694969
H   78.672211   10.457699   67.041420
H   79.371262   44.068626   46.310978
H   77.460762   22.961231   26.144543
H   77.053307   12.260001   14.971510
H    2.908309   50.660469    0.623863
H   56.665524   76.016449   53.053570
H   93.910530   83.969490   32.131554
H   90.132568   49.911045   36.058601
H   42.963947   13.707483   35.966339
H   85.666275   37.172794   60.046112
H   71.289742   67.409729   48.117043
H   95.369385   79.451614   77.332901
H   17.358658   44.788918   66.946716
H    3.348015    4.297323   26.075119
H   92.640411   63.615089    0.685504
H   43.017502   37.440804   11.871699
H    7.809484   69.614586   10.376770
H   42.319092   29.627979   40.906761
H   53.623211   14.440731    3.908372
H   21.015938   55.061539   41.071846
H    5.638779   72.977814   96.543854
H   80.712334   84.416382   14.553283
H   43.109344   35.475056   24.743006
H   20.338676   53.020805    9.154843
H   59.353027   19.066349   45.095074
H   39.494194   65.343437   40.521881
H   47.149155   87.172478   69.149963
H   89.047981   41.924389   85.236298
H   73.394463   62.649078   68.226143
H   28.486244   91.612694   29.982367
H   96.460007   31.008867   60.991222
H   57.836636   53.858036   37.921021
H   39.649567   39.844456   94.977661
H   10.761281    9.401943   69.068611
H   77.913780   48.094734   29.607080
H   99.847961   38.737820   46.862049
H   36.989807   30.519543    5.039114
H   15.534879   82.481987   46.359657
H   64.100258   10.287301   47.971313
H   28.853737   95.249313   31.946747
H   13.139253   38.063389   75.633163
H   88.840797   82.189087   48.267147
H   71.074203   59.106030   88.722404
H   71.086227   96.662323   85.522079
H   90.102776   34.047691   96.907875
H   81.956963   78.510193   14.393036
H   18.178860   58.210228   64.151497
H   74.062195   87.128189    4.121694
H   44.458576   96.229622   98.817062
H   57.639606   84.370438   82.718987
H   87.371674   62.459743   24.510500
H    4.005611   88.209923   54.763638
H   21.215950   48.366508   96.012299
H   40.647507   86.534241   63.019234
H   41.093468   17.027081   86.878014
H   23.163607   73.886833   21.694201
H   35.709770   70.614037   89.192451
H   25.562960   77.702011   43.451862
