100
TIME:    0.040, STEP:    40
H   14.617558   18.352997   99.109390
H    0.157517    6.913478   80.523712
H   80.451691   76.781639   22.870201
H   81.483322   31.002951   37.970787
H   94.812775   75.963699   64.620750
H   27.396065    1.170117   82.706993
H   50.873211   64.040062   93.580536
H   16.742376   92.062836    4.520742
H   52.644722   82.447495   97.568611
H   73.747475   16.961693    9.254923
H   96.534332   67.852005   35.896629
H   54.315350   25.695473   90.082176
H   40.717827   59.287338   21.153473
H   53.101521    4.953938   60.285217
H   80.989601   66.448105   48.850475
H   99.913361    8.239914   29.720013
H   20.849955   84.642372   76.996635
H    1.999608   92.755310   98.159470
H   45.887161   80.031860   65.468323
H   91.566628    4.693727   18.916895
H   61.902893   52.235909   56.155380
H   66.183266   44.152733   15.849432
H   85.209969   94.296898   31.206757
H   15.325138   37.161503    4.103448
H   28.151972   83.000404   36.853592
H   46.469898   26.423256   85.420891
H   58.630375   40.814671    0.760134
H   29.165352   58.306240   68.098526
H   12.040805   52.720943   55.281281
H    2.527877   89.849655   86.568779
H   17.675234   25.629221    6.246747
H   68.282990   51.404869   95.561104
H   73.176208   65.555641    1.400469
H   79.792213   70.056946   70.066307
H   79.777565   55.896500   27.164406
H   76.032951   87.628166   20.506697
H   83.637062    3.068669   11.615959
H   62.334915   58.222134   25.264322
H   48.922993   79.654106   38.293121
H   59.425060    8.438173   41.181252
H   32.507984   57.551517   43.280201
H   28.026199   13.651674    4.679679
H   11.586356   63.739803    4.362865
H   76.805405   13.442235   84.642349
H   53.185112   30.313732   59.530182
H   77.440575   63.956089   83.475151
H   36.502430   27.898258   27.965033
H   56.241550   95.793625   71.052917
H   66.196281   29.136349   42.878952
H   26.728712   31.358219   80.867081
H   43.535381   65.783287   53.849377
H    7.077416   60.028053   71.436905
H    9.709167   22.240662    0.546281
H   75.757996    6.549712   33.580769
H   37.575401   62.012341    0.745607
H   93.616287   12.490406   91.265106
H   98.788445   88.392616   59.791786
H   23.081621   73.108971   12.524694
H   93.432259   40.459167    8.412242
H   56.384048   30.862326   62.461159
H   62.224014   76.709946   11.277637
H   97.491455   27.573044   93.544098
H   76.946785    4.425491   30.813934
H   45.786316   42.012070   26.054937
H   33.909004   57.650318   99.285957
H   98.888252   40.284657   48.550976
H   84.359093   49.744511   68.993515
H   77.602638   19.824856   68.114830
H   58.897499   46.912178   57.724957
H   31.197075   50.156250    1.646652
H   20.762777   92.682610   61.667667
H   70.668053   50.198006   59.551243
H    4.383299   16.328541   60.724049
H   29.310532   46.848995    0.831299
H   64.098557   28.700613    4.429937
H   26.603376   10.135786   93.238480
H   70.587463   23.077240   91.739441
H   33.859604   48.104511   16.649044
H   63.471924   53.382458   18.134468
H   97.563766    6.775294   17.475000
H   11.664940   29.694628   82.379456
H   44.325535   44.488785   83.435730
H   20.326855    7.924991   33.709564
H   52.922203   15.584446   59.776649
H   50.383575   46.383835   43.874657
H   50.379063   10.517383   44.562939
H   69.826225    0.444590   25.450558
H   56.599091    2.091652   95.322151
H   56.513374   91.945427   27.873802
H   62.798195    7.641334   25.641802
H   25.659548   75.590546   34.306469
H   81.246223   98.515160   34.287224
H   87.850746   28.829950   22.009203
H   51.094536   15.658484   29.516052
H   55.900120   46.147167   17.006634
H   97.225388   94.152092   65.382851
H   59.427269   69.975914   34.888435
H    7.012287   16.578247   55.395111
H    6.806480   37.022717   41.700947
H   41.725658   77.675102   93.833237
