200
TIME:    0.661, STEP:   661
H   22.407587   61.077785   22.538416
H   31.716675   39.024281    6.988338
H    9.313898   87.565254   66.084709
H   32.033813   81.894508   33.490650
H   10.740278   94.399429   47.605534
H   75.922729   41.388393   53.088375
H    9.458762   55.005417   57.800144
H   12.323001    7.065562   10.128775
H    4.525554   81.194695   37.449127
H   96.041229   69.001701   79.466545
H   26.867689    3.587525    6.265664
H   32.518692   53.259937   32.801960
H   21.507099    0.980071   44.036949
H   84.505142   54.983158   62.552639
H   99.295975   75.185471   41.942730
H   17.029037    8.620094   45.241146
H    4.012143   27.436010   94.991646
H   26.565344    3.405892   36.025223
H   79.032845   14.460332   48.681339
H   91.395645   73.923119   21.150677
H   63.137512   97.774208    6.552760
H   80.656487   64.906364   54.351006
H   82.398209   59.480446   39.034546
H   17.525476   91.897491   90.265961
H   21.545311   29.635973   30.387943
H   18.312593   81.020195   93.051910
H    7.048655   67.244255   66.008972
H    4.172282   87.496582    1.839046
H   28.800301   43.733223   35.873173
H   74.024895   32.042397   84.062805
H   12.811843   69.038033   16.709532
H   24.270309   73.373520    3.968363
H   16.950974   18.044422   78.321526
H   82.493004   64.037231   45.648933
H   27.784946   72.404953   31.016502
H   19.309185   40.322964   84.304077
H   98.347916   65.342323   89.115517
H   12.090757   55.645515   96.238609
H   37.488960   31.325247   53.789722
H   86.045296   37.957233   47.251068
H   80.629578   85.557060   15.498287
H   34.294235   34.278774   27.347498
H   69.121597   78.110672   65.960968
H   36.343369   83.681328   33.805176
H   43.161655   89.139839   59.556557
H   35.135303    2.882038   47.266548
H   87.907730    5.586304    5.409393
H   79.866409   65.544182   32.512833
H    3.361911   12.775880   61.469864
H   47.051628   19.701387   87.901695
H   68.193298   65.167450   11.184244
H    5.044789   42.944195   72.593071
H   63.531399   82.381378   13.430703
H   16.140833   91.068024   87.937607
H   59.378860   67.022026   77.157791
H   99.908745   61.978275   92.434021
H    4.229004   18.338600   45.138554
H   72.008224   68.366280   97.704597
H   19.297642   82.610184   17.308796
H   33.366188   93.625160   59.211617
H   49.056034    7.162582   29.936110
H   97.502953   17.422201   52.293564
H   83.045753   33.927605   70.681564
H   34.326653   65.752975   13.067257
H   78.116005   82.355270   35.145130
H   22.224854   32.917259   40.430710
H   70.449318   14.281601   94.533150
H   94.983833   92.407097   95.606628
H   31.497517   11.542459   56.651138
H   42.813530   48.967743   50.960110
H   58.280476   83.873680   84.542526
H   20.308386   12.755894   41.817841
H   90.855606   32.941433   85.398399
H   21.581062   99.710831   72.829079
H   84.271347    7.686589   47.817314
H   63.955032    4.213455   60.126415
H   93.648148   45.623028   66.190575
H   10.962035   13.636120   33.571465
H   14.731293   48.449852   25.614094
H   61.931915   88.318993   74.295990
H   61.236317   22.986721   94.883377
H   45.148445   61.018990   74.842308
H    9.357189   18.284317   77.961792
H   10.945282   75.626122    7.572780
H   23.916325    3.775740   45.851315
H   36.527927   71.044205   19.018948
H   54.723965    3.661380    2.736510
H   71.830437    2.875197   27.321390
H   78.571823   73.081917   78.686951
H   21.335468    4.917821   50.233837
H   23.595007   38.527145   78.881905
H   81.122894   92.229233    7.553938
H   67.259315   12.113997   83.739525
H   41.149483   79.308456   80.664566
H   35.792389   51.231369   85.473953
H   51.837471   37.121990    9.267194
H   85.016487   99.717567   16.460541
H   95.321472   34.980335   52.579632
H   27.478340   65.560707   54.373211
H   74.524521    4.768181   27.353189
H   28.649748   92.066589   88.764107
H    6.226999   83.025917   63.542343
H   31.906332   21.784058   36.385780
H   42.105324   68.716782    6.881047
H   24.780659   21.940105   38.736824
H    4.090281    6.160835   24.180164
H   85.601456   35.324272   54.299927
H   62.270432   50.438641    2.462237
H   83.495651   34.775440   19.490086
H   17.890753   22.190504    7.597746
H   52.733593   92.408340    1.092055
H    2.898393   73.932068   95.306641
H   49.781979   85.160072   84.778030
H   61.798058   10.321108   64.097504
H   49.801079   99.499527   12.011116
H   96.857330   93.481865   97.926796
H   15.265589   14.370811   89.087997
H   38.635151   47.718536   25.563133
H   34.850605   73.519737   62.732582
H   81.892853   55.077389   65.047821
H   44.948555   24.557064   73.724396
H    0.123859   17.506847   60.571934
H   42.386238    4.066499   36.518402
H   97.874672   52.169193   99.428978
H   64.319008   98.528427   78.889221
H   63.146252   73.870804   17.402679
H   84.922020   51.155655   54.795746
H   66.219940   90.871880   38.558231
H   97.648636   37.244453   75.296097
H   88.150871   22.153906   73.673950
H   65.603516   70.153656   19.500126
H   65.540558   90.226944   19.255199
H   91.063026    3.077378    0.506995
H   80.277199   23.796982   54.888599
H   25.223812   93.757767   37.071159
H   51.145073    1.086536   77.479279
H   69.589714   87.637321   76.296799
H   94.809334   51.075943   76.546371
H   57.317459   50.221184   71.450516
H   43.675995   88.898903   83.759476
H   71.460167   50.688107   28.509415
H   37.857239   53.802517   56.061081
H   41.471844   64.509773   85.184105
H   38.421959   11.288207   85.100838
H   60.090916   55.804619   62.835072
H   61.365643   69.228821    9.682995
H   54.688377   94.934120   44.267456
H   31.156784   57.747467   66.409569
H   76.440033   47.214817   93.759254
H   22.882219   93.271133   74.242195
H   61.381184   68.459808   48.165947
H   51.509441   95.460449   34.959141
H   95.733467   16.096699   88.685951
H   21.038801   10.806231   65.548935
H   30.306778   64.997437   68.369492
H   75.999893   44.572796   67.013618
H   63.718090   73.509468   85.740768
H   52.031582   29.905113   19.587305
H   93.113342    0.148029   86.991699
H   58.959679   39.766174   94.397308
H   58.091366   67.305618   72.222153
H   23.837280   20.874567   31.896778
H   83.341316   16.214422   37.056999
H   26.728172   32.547371   53.187000
H   54.923157   36.373623   13.961167
H   19.167139   51.043755   60.000443
H   67.650406   90.757576   56.684738
H   23.999985   50.087177   65.421616
H   99.793488   26.801105   35.862827
H   45.685383    7.282669   85.662476
H   71.322205   10.640485   35.940742
H   31.619095   49.809757   58.750935
H   45.807270   59.363983   78.578262
H   66.041809   64.468109   84.006889
H   51.870514   91.869537   79.436020
H   13.905459   49.934929   23.690651
H   31.092819   66.072838    4.518833
H    5.461252    9.602356   70.263474
H   64.835030   11.592495   64.210884
H   66.273865   58.971138   92.323944
H   73.731560    0.276077   31.930811
H   27.719326   30.619961   84.985466
H   46.250732   89.723488   14.407616
H   60.649220   25.999390   92.678429
H   90.967262   70.074303   76.662369
H    8.073901   39.776215   86.061256
H   46.011444   97.313354    8.593506
H   70.195244   85.057442   40.257915
H   94.426155   63.050804   71.354950
H   57.269314   55.983173   71.022049
H   67.931740   17.095615   76.295052
H   44.201649   96.370255   19.261995
H   13.451818   27.539766   67.450745
H   27.748608   80.332970   41.797714
H   70.447144   35.450829   20.439150
H   76.355972   11.416497   23.798468
H   12.259713   97.039009   17.676558
H   16.674274   89.038986   35.093647
H    6.299179   12.789886   59.188469
H    3.616757   20.729330   91.899788
