100
TIME:    0.528, STEP:   528
H   81.616127   73.601051   98.662613
H   86.582924   33.372120   11.306354
H   88.836212   11.890557   17.140282
H   81.565231   10.896109   11.221274
H   90.441803   15.079049   51.388695
H   19.828773    0.638987   31.034906
H   25.298443   96.989891   31.743059
H   78.386536   34.280560   59.715775
H   40.648750   35.528427   66.852669
H   60.411171   23.966789   28.365824
H   51.141754   87.487869   88.889793
H   35.688457   50.156532   55.345238
H    9.676822   29.762802   72.649406
H   28.938313    3.449322   97.420235
H   86.924294   22.860655   25.391466
H   80.294128   65.555550   89.211411
H   81.616142   16.914474   21.428064
H   12.427428   69.023987   81.241501
H   53.486099    0.501784   91.180359
H   78.356911   94.461670   52.209251
H   32.944275    3.652636   42.912155
H   12.976003   44.796837   74.297981
H   78.694466   90.328026   17.243103
H   69.984604   43.014286   67.862015
H   10.699732   44.300144   40.457596
H   44.237965   11.877107   39.683922
H   16.548357   20.528309   10.443686
H   87.989922   81.084442   84.227188
H   22.652115   96.996574   32.212677
H   21.239210   77.771774   25.362801
H   36.871769   69.391060   67.630363
H   99.095734   37.923363   50.384468
H    7.548889   29.850798   45.363365
H    0.411004   25.334534   49.507103
H   67.647560   19.007584   56.878822
H   18.462692   25.962915   18.827559
H   30.441410   85.199074   50.069592
H   42.166641   49.290310   59.699688
H   26.982929   69.236748   91.520187
H   13.462090   62.754574   79.576530
H   99.159683   74.296791   54.780994
H   84.167534   35.554832   27.606344
H   15.788856   66.666199   39.611076
H   45.642685   21.620123   32.356941
H   10.855751   11.059730    1.289428
H   71.208031   73.129936   85.388847
H   41.655262   54.224613   32.134956
H   56.267612    0.819597    1.247610
H   80.463371   88.720505   23.411451
H   36.963634   38.785892   46.735176
H   43.504337   18.668623   58.984028
H   30.791986   14.744156   39.400108
H   19.831820   25.070251   72.205666
H   64.461975   98.587318   55.115437
H   98.724869    4.791696    4.886492
H   94.226883   11.977041   74.652435
H   29.724678   74.311684    6.204615
H   86.742859   27.023888   99.954422
H   31.919067   61.077942   70.949539
H   24.176407   68.372620   48.592003
H   93.006973   54.015297   73.227936
H   80.171387   23.030807   71.465851
H   10.046379   71.147835   97.335060
H   79.296638   44.666672   12.804266
H   53.280525   18.673355   44.733017
H   68.909492   16.024647   77.405342
H   45.206505   66.614655   92.553574
H   43.893288   47.734360   91.444054
H   83.217857   11.847603   27.116985
H   41.082176   74.701317    0.620460
H    5.265271   59.479099   55.814884
H   30.431341   34.002327   95.278999
H   72.565109   92.190193   48.210560
H   18.569260   15.966476   71.827995
H   87.628830   29.394979   41.424244
H   38.141399   41.412621   60.400753
H   14.893588   80.781364    0.377010
H   56.786728   16.195744   43.600224
H   86.860802   51.955906   23.575844
H   73.631393   80.198982   75.433533
H   21.214382   34.744061   11.546171
H   80.939735   47.675797   42.628113
H   51.203594   16.070292   80.189301
H   86.491302   57.343235   15.203163
H   26.620687   15.856465   96.568886
H   39.140636   28.448166   78.449120
H    2.418650   64.963020   48.720211
H   64.454926   63.021034   90.251228
H   66.640327   64.773918   23.880730
H   19.653862   87.559982   43.087780
H   45.630497    1.942804   44.612133
H   17.353609   35.216301   43.583916
H   19.161278   43.451141   59.762383
H   98.260353   45.260178   62.417622
H   47.463474    2.433787   28.218884
H   37.532242   74.881096   40.177162
H   20.692217   97.981407    6.823086
H    8.803794   20.733276   47.587677
H   83.559441   39.126293    0.824461
H   72.032059   65.142998   46.832260
