100
TIME:    4.093, STEP:  4093
H   40.528961   46.672333   95.398758
H   87.437233   26.657114   36.182365
H   50.109665   68.370857   75.298271
H   82.163605   64.018669   15.811366
H   58.510422    0.829504   54.726257
H   64.555550   96.773842   84.089714
H   38.456181   37.716877   10.530938
H   98.184563   42.698048   32.388279
H   53.014183   92.768036   42.447422
H   62.989571   75.152779   67.969269
H   19.534134   30.933079   45.490780
H   99.620247   28.851389    1.585338
H   82.884384   14.078236   18.321121
H   52.419380   92.460091   68.720154
H   30.288181    4.424386   54.026745
H   36.954453   53.740349   93.286072
H   94.972328   52.689877   45.990288
H   88.602135   95.657906   57.645267
H    9.018208   50.061050   78.996902
H   82.245262   18.896772   95.003136
H   21.392288   48.746815   46.151459
H   54.780243   49.517502   70.721527
H   31.096581   61.334114   15.244214
H   38.757469   85.770782    3.090503
H   83.195343   61.565224   66.767555
H   27.888117    5.654178    5.531865
H    9.134493   72.337418   81.181129
H   87.186401   47.487106    2.062756
H    0.168681   20.440971   63.693855
H   57.936829   89.537682    8.770622
H   77.141563   89.082848   85.553810
H   24.191572   39.425774   20.354515
H   58.663830   69.018990   66.526718
H   51.040787   98.623810   99.320442
H   79.029968   49.520744   73.962677
H   28.434698    6.010464    6.560816
H   72.370316   54.641586   30.977591
H   94.821739   84.047447   11.273848
H   72.307159   92.239067   47.669930
H   77.678108   29.010056   60.064068
H   55.524017   96.626068   38.775005
H   63.765610   95.553329   95.094421
H   46.496243   88.044449   97.115929
H   17.993223   81.365601   80.926270
H    1.618617   70.400787    6.359474
H   25.282352   40.984516   99.786629
H   73.711227   47.429466   64.756569
H   56.458004   37.526535   21.829536
H   84.672653   93.467926   81.203308
H   11.720004   93.032921   97.395485
H   43.232349   74.490654   96.572754
H    4.045370   83.939682    5.363087
H   93.774376   45.741333   65.155800
H   81.907829   40.425278   12.429450
H   14.903271   17.288736   35.159542
H   98.687485    8.228491   53.291428
H   55.729053   71.444862   45.265862
H   21.282463   90.354042    8.128349
H   13.083487   11.707760   97.260979
H   88.923264   42.390141   47.195930
H   17.890108   88.228783   95.273933
H   53.646049   89.845016   10.157901
H   51.934856   27.984447   52.801170
H   24.098036   64.059494   16.013882
H   94.780067   33.942600   76.732216
H   49.905617   38.797585   88.193909
H   59.179550   89.868317   64.672348
H   97.634102   51.620560   61.871670
H   60.898499   55.689453    3.525770
H   13.310942   54.009712   93.114441
H   92.060524   16.911987   13.049137
H   36.480682   15.686643   56.292980
H   40.120667   15.850529   56.806198
H   40.108318   90.366310   59.961784
H   59.509754   34.474171   11.674968
H   22.417788   69.896812   20.522896
H   38.572769   71.793259   63.435810
H   24.276913   83.089684   40.481422
H   57.785378   41.496296   63.352898
H   98.796631   86.040504   68.305626
H   90.968765   71.625626   24.617685
H   48.428185   70.957962   44.523682
H   76.761818   75.577606   19.738018
H   31.742380   62.405952   89.584824
H   53.034424   92.864586   50.981934
H   57.094143   59.399216   26.013702
H   40.516945    5.758492   18.713697
H   21.839201   77.598839   53.177353
H   40.625839   66.280495   94.715340
H    4.461896   40.879211   70.530380
H   91.524994   94.442207   19.898478
H   81.136978    3.316244   11.516848
H   47.822685   50.328300   35.522503
H   42.832142   61.504875    2.789088
H   85.824364   83.103661   10.140168
H   31.986633   34.102486   56.040199
H   37.718933    2.569626    1.796478
H   21.890150   51.087128   90.541557
H   13.732109   54.493610    2.204369
H   93.443565   73.598610    3.447927
