100
TIME:    7.311, STEP:  7311
H   22.909037   51.567024   92.452591
H   98.565414    1.035061   39.087208
H    5.440221   99.887138   37.521023
H   82.703735   31.438148   39.421993
H   29.686102   58.766232   67.474045
H   14.643008   93.287544    2.778608
H   69.799255   55.012424   62.182873
H   45.256111   21.096668   36.922241
H   73.909538   83.370483   39.885525
H   75.070259   21.360125   93.972969
H   20.203613   60.416508   35.517159
H   76.801422   90.153427   72.524193
H   77.551476   19.460415   98.559883
H   93.084602   82.541328   13.609852
H   69.405403   16.978264   99.317657
H    7.563411   72.282166   26.164282
H   36.200050   65.535263   38.937527
H   57.410091   39.085648   46.088943
H   59.133228   85.058594   48.532742
H   95.547867   50.553944   14.099436
H   30.431610   28.384140   58.807560
H   63.293030   53.789444   96.679123
H   88.129814   35.162331   23.174299
H   39.760620   24.289034   64.096497
H   68.101021    6.360420   90.533302
H   13.135326   10.573795    2.884587
H   31.642866   38.567368   45.030903
H   15.661065   97.692482    8.434335
H   70.141457   12.403296   11.577517
H   81.329681    9.892496   64.592094
H    3.788197   77.646713   30.955956
H   27.378139   50.514423   22.448143
H   85.334114   33.574287   56.429573
H   87.008568    3.713241   63.750412
H   99.004906    6.124726   69.859955
H    8.170616   58.057785   96.441139
H   81.018723   36.791626   84.543610
H   61.813293   25.157017   38.358017
H   36.472897   22.122023   35.821747
H   74.578362   27.751719   13.248368
H   35.596008    7.042772   14.588583
H   84.082619   70.273239   53.198566
H   74.205719    7.344419   29.555035
H   12.512365   35.357384   95.566643
H   22.481056   43.436611   81.731880
H   83.753044    2.362601   12.862993
H   98.851852   22.435371   95.642220
H   56.633846   70.670914   20.940762
H   78.737129   26.953098   52.836594
H   79.235596   42.011532   72.347939
H   42.999584   63.813690   30.494640
H   60.443264   85.332336   94.114990
H   60.526119   64.400391   78.257942
H    7.388458   87.917358   54.430252
H   58.682327   99.305458   62.534344
H    2.701601    4.843261   43.743103
H   59.736187   78.590508   51.324425
H   81.663742   86.453423   25.241171
H   66.878471   47.683064   50.219902
H   76.567604   89.735550   55.668358
H   20.884104   38.576210   44.372391
H   39.436256   59.892319   64.556473
H   70.405388    8.393218   32.133240
H   45.073330   81.589188   28.645596
H   22.508167   76.927460   76.410439
H   52.221100   78.821922   78.467224
H    0.992808    1.123806   20.037428
H   75.344917   35.661858   15.710677
H   21.280724   24.464493    1.698498
H   78.507378   15.857967   86.337082
H   89.874550   97.961288   74.450722
H   71.223640    8.845611   91.939888
H   30.300802   56.679394   74.296692
H   69.262062   86.706116   68.758820
H   14.649674   39.080242   55.626606
H   98.491417   76.140160    3.992469
H   30.777985   93.014473   20.402861
H   75.464401   72.672874   18.198099
H   12.103213   32.044010   99.247475
H   40.986282   10.754441   91.072090
H   53.939781    4.918008   16.951370
H   89.908333   91.883606   75.365410
H   80.312630   29.383825   26.205711
H   53.133823   37.777584   95.670830
H   96.344727   91.574608   39.032845
H   83.028549   77.600540   49.481293
H   55.439945   71.783211   72.160027
H   73.610008   20.040018   19.774208
H    7.406644   87.107796   68.396248
H   19.947874    8.480228   85.567307
H   23.218983   68.203178   87.856735
H   19.238863   45.336151   72.827766
H   54.102650   46.886417   84.375435
H   53.845688   56.722740   19.768259
H   30.190510   94.854202   84.085815
H   97.780182    7.028950   89.826103
H   82.289726   87.243149   16.726479
H   24.165400   48.206944   32.114014
H   60.433861   68.372871   32.664509
H   93.326118   91.022293   93.448105
