100
TIME:    2.876, STEP:  2876
H   22.830017   58.277458   96.512955
H   21.269142   60.678444   59.417194
H   29.190619   80.815231   89.578560
H   81.959335   14.158831   82.520203
H   69.410980    3.281587   87.725052
H   83.422615   98.092308   63.566730
H    2.240017   55.539993   15.359885
H   93.838364   37.412273   44.129612
H   82.930367    9.777754   19.052700
H   96.248344   57.678459   20.310274
H   32.736511   81.964737   62.717663
H   46.072861   67.849716   88.212578
H   60.318733   87.705261   39.277954
H   12.678374   96.211220   76.105446
H   15.483292   13.131513   12.525022
H   85.886261   60.183624   94.307961
H   92.836250   72.194794   35.201977
H   62.603714   54.840797   99.837585
H   90.060966   99.003342   14.881990
H   15.035522   44.739208   12.144037
H   93.610809   69.903168   79.182373
H   38.105270   47.901917   74.360321
H   47.345284   71.231895   50.065048
H   51.829956   71.174805   93.476418
H   26.721260   58.079063   57.781143
H   33.471760   41.913479   19.604223
H   14.077744   22.924643   57.037525
H   89.873497   90.681679   61.839397
H   73.706497   10.025413   21.221964
H   11.272382   19.659348   12.022503
H   29.243200   79.951691   81.838982
H   47.349525   73.049156   33.018318
H   72.939911   58.060310   56.889748
H   99.618431   10.154495   50.589310
H    9.281369   41.516663   99.858025
H   22.611523   10.409201   10.753602
H   55.644196   99.209457   35.082760
H   45.120117    6.315148   25.393040
H   23.675323   18.753664   65.606461
H   92.306473   42.941925   64.313148
H   38.697124   54.864292   10.103488
H   73.142662   40.935196   37.917557
H   36.013508   80.746460    9.210517
H   95.707611   60.974419   61.933105
H    7.184290   18.419842    2.217601
H   40.983242   17.772083   94.847023
H   64.203415   81.244049   53.067390
H   56.393009   24.994417   46.528496
H   49.096527   94.259758   29.748713
H   86.200645   74.518684   82.513214
H   43.325199   91.983948   83.740921
H   44.900410   96.867554   85.257774
H   68.537819   38.684753   35.835648
H   10.093685   60.285835   58.726227
H   11.801033   10.629096   24.810022
H   97.164749    9.509413   94.720978
H   78.577156    6.560998   29.519081
H   11.903518    5.284647   39.477371
H   17.101227   60.286877   90.691154
H   69.231339   48.847614   81.810310
H   41.121346   44.824017   90.160477
H   96.839745    1.172911   65.226624
H   69.313103   11.029787   36.254532
H   40.529243   57.439224   49.059101
H   46.476269   31.142349   63.398476
H   24.667824   99.298470   16.236385
H   56.821785   47.792393    5.915015
H   81.700691   82.018372    3.692031
H    0.240252   43.135307   79.855232
H   88.652649   92.796944   95.677094
H   30.707310   99.716225   27.649757
H   36.827896   56.076294   67.190155
H   19.471098   76.046867   88.005852
H   66.900688   67.381790   32.279320
H    0.836001   32.737881   19.418346
H   93.646751   91.897209    2.411896
H   28.076777   77.274796   41.913242
H   67.100037   62.667439   73.271652
H   99.428711   45.071011   49.768982
H   58.480904   52.321758   73.151260
H   67.162094   59.035198   51.880299
H   57.114517   63.010025   46.288429
H   99.763565   55.262085    3.824740
H   48.014027   58.264618    0.739386
H   12.291722   68.990143   68.956505
H   85.099915   14.693867   41.501461
H   59.236259   94.244286   60.682098
H    2.252550   75.034943   65.834114
H   15.367714   34.040550    4.670413
H   12.061129   90.948074   27.028355
H   41.720398   28.727921   94.197586
H   91.085953   11.798090   88.324455
H   69.811798   13.810360   41.409935
H   25.203915   87.683525   20.732952
H    6.865278   92.114624   82.174675
H   31.467422   82.161507   18.900055
H   34.318619   32.728146   71.788139
H   17.424078   40.725098   10.017872
H   71.707481   49.247601    4.141962
H   17.850985    4.831996   20.685045
