100
TIME:    6.384, STEP:  6384
H   85.598709   36.576775   93.301285
H   24.164543   50.804546   80.637611
H   89.501038   33.193947   48.405521
H   82.548141   69.629425   90.233887
H   37.990143   84.463181   92.609528
H   29.021130   94.291832   10.974827
H   18.385204   92.415382   89.690193
H   18.116486   40.898708   22.035839
H   96.696968   72.497787   98.236153
H    0.389677    8.048719   57.677158
H    6.430893   23.116415   24.810642
H   12.180214   43.687443   38.508507
H   36.690536   75.537224   90.675224
H   38.982918   85.398598   43.065807
H   58.146065   99.782494   43.895565
H   44.837524   53.361061    3.112896
H   10.743840    4.223686   54.549049
H   37.586018   84.193726   78.222206
H   44.698360   46.171028   99.697327
H   20.521950   70.238808   50.985008
H   85.441116   20.669712   83.969872
H   74.420639   52.558838   75.621719
H    0.506650   42.701561   49.697159
H   25.891979   13.199434   32.941769
H    1.256584   79.876999   83.687172
H   17.444448   37.932724   90.094612
H   11.579060   77.102737   26.635466
H   93.878708   54.423241   77.795029
H   49.984978   28.298172   55.396759
H   45.783558   32.835991   90.898636
H   67.307991   94.521507    4.297217
H   68.846924   76.127106    8.265160
H   20.037151    1.399011   72.918091
H   47.841347   88.667282    2.804261
H   22.076172   76.311684   13.457990
H   27.587591   85.450783   99.354988
H   92.107796   70.739380   11.499475
H    0.131396   42.123821   72.941902
H   75.602661   42.319206   25.655043
H   61.891071   14.534332   40.314335
H   98.951004   75.232307   92.749977
H   62.205231   66.638000    5.874900
H   66.227997    1.783539   62.595932
H   71.702713   19.797995    4.929880
H    2.891430   80.011337    2.405975
H   95.719627   84.681870    9.096914
H   91.609665   72.021500   86.745079
H   56.580357   61.123108   63.583668
H   51.638733    3.727857   89.813492
H   59.773754   27.900969   37.162498
H   43.063236   53.309662   20.724052
H   15.384809   71.352585   54.966347
H   41.296131   59.025330   32.095562
H   28.853340    3.039334   13.524806
H   32.491844   18.067921   54.648563
H    1.547024    5.818375   75.300369
H    0.970760    5.338796   63.158974
H   50.689606   73.997414   49.118759
H   93.769867    8.509109   21.383202
H   37.740387   18.483181   82.034447
H   62.408314   81.685684   16.649647
H   72.337288   68.520706    6.497020
H    7.469759   71.650307   95.700409
H   81.417953   76.539459   53.816441
H   85.714935   50.965290   90.082817
H    9.167915   24.905388   23.655745
H   75.368088   69.071625   75.281509
H   39.379311   82.644753   71.394714
H   75.080727   91.072815   59.840679
H   59.721054   69.240166   88.290253
H   19.311638   61.033829   85.568611
H   47.576733   39.652557   24.028027
H   90.742050    2.528992   98.060120
H   89.673149   45.375500   23.837645
H   69.967888   37.742733   85.348282
H   76.580971   16.726871   66.365967
H   46.586514   73.249901    3.962737
H   31.912258   33.285866   67.005653
H   67.647362   34.766903   88.907555
H   86.447983   61.253029   70.933891
H   35.797539   95.327072   61.545689
H   20.347574   85.872025   52.918438
H   21.676926   13.881259   37.923523
H   89.358604   58.451927   80.337090
H   41.481804   49.563095   28.895081
H    4.360323   43.549522   85.107452
H   93.527641   39.183983   27.957220
H   58.701286   94.219482   29.385666
H   88.168564   38.720848   75.977913
H    1.906810   46.621944   52.428284
H   85.282219   18.149887   68.280197
H   50.650249   75.617264   55.164330
H   94.680298   19.070477   12.689097
H   64.255135    0.483090   57.262299
H   46.217079   77.890121   62.783604
H   21.213852   43.633942   37.707169
H   55.870323   34.044189   70.039612
H   25.954729    2.339922   50.721626
H    4.594139   64.369865   10.309631
H   35.745708   14.811520   82.749657
