100
TIME:    5.967, STEP:  5967
H   13.798733   74.817894   93.683060
H   35.680336   28.206656   54.344875
H   82.330032    3.194321   53.301785
H   82.478149   86.809296   13.090814
H   41.725174   51.038788    3.916097
H   35.489033   94.743599   69.679070
H   40.239628   64.259483   57.080250
H   50.891861    4.823949   60.324680
H    6.947685   12.590753   24.485144
H   11.780874    2.060815   41.349918
H   45.219223    6.337827   64.976906
H   28.097046   22.785267   68.191505
H   63.300247    0.753517   32.110527
H   59.630577   86.683907   11.330769
H   53.078911   37.030685   63.946033
H   61.603806   89.833290   37.728241
H   44.276527   76.640831   16.587896
H   28.668394    4.484692   92.678749
H   38.205006   28.676195   77.726181
H   31.755676   79.095985   22.593683
H   10.186470   62.184551   95.289497
H   34.442444   52.005264   11.133072
H    6.074701   46.092995   61.627625
H   64.638649    8.210909   63.913258
H   16.170422   12.946320   80.607521
H   19.345369   50.260872   29.307987
H   47.538170   94.435318   18.360495
H   29.063950   34.959084   64.012955
H   40.917824   90.465149   75.109070
H   29.793774   43.156639   57.747849
H   50.895493   57.127239   37.288887
H   42.517185   87.650345   46.868965
H   90.664421   31.907682   35.351440
H   30.222275   26.882683   20.370783
H   32.448761    7.859842   88.077194
H   91.339005   52.789940    0.666078
H   52.111458   86.010376   78.641640
H   17.366245   49.756138   43.515636
H   93.202484   51.405449   66.065666
H    1.169118   53.573315    7.505152
H   27.449078   60.922798   82.925636
H   97.347610   65.002731   84.585106
H   62.638103   99.282272   32.477074
H   98.331512   12.798788   64.156578
H   39.062702   96.465836   66.722641
H    1.102266   76.728226    7.402789
H   88.351852   49.344070   82.742805
H   56.558086   56.828140   37.782047
H   39.450569   38.262627    6.447034
H   51.023792   21.552908   66.323044
H   43.091869   93.567825   16.328869
H   95.118156   10.046104   82.339607
H   32.645748   56.607422   56.315998
H   38.509064    9.843677   95.124413
H   65.693535   81.524567   51.101238
H    1.027651    6.257018   89.496033
H   74.532936   17.371773   23.498924
H   81.740631   13.377962   59.859360
H   60.880264   90.889046   53.395027
H   65.256958   86.431427   93.894920
H   36.104023    1.079714   49.160961
H   87.137428   72.402084   25.365875
H   79.160652    0.105269   24.295349
H   52.783592   74.267899   65.138931
H   69.164993   84.270035   51.249943
H   34.783592   45.635765   98.998940
H    8.824642   54.655323   55.149246
H   68.184227   58.796543   51.459705
H   54.297962   21.035759   85.992767
H   51.274284   48.265610   89.168335
H   32.554390   89.406067   90.569862
H   81.960403   53.491898   93.497482
H   17.931747   23.154381    8.752350
H   98.854836   71.766624   48.614311
H   49.863316   37.147800   53.737320
H   66.724815   90.001518   94.426422
H    8.719512    9.365763   96.577385
H   12.320842   60.554138   43.975494
H   47.651318   35.991764   84.256264
H    6.898016   83.968636    6.858814
H   27.637102   91.013016   36.622150
H   89.052155   83.167648   87.801170
H   95.300148    6.908237   98.209839
H   60.668587   22.768288   18.424221
H   61.785866   75.646446   69.318680
H   13.958630   28.231197   56.149826
H   65.677162   69.503273    8.073111
H   51.994774   27.587923   33.709267
H   79.514999   61.939125   79.388435
H   38.775715   63.779545   37.523155
H   68.216881   95.632919   59.473919
H   19.796473   44.254456   47.220230
H   67.949692    6.557806   80.441849
H   23.955276   75.184151   29.144579
H   53.426262   15.241657   53.201054
H   86.771301   60.101166   59.245636
H   88.970207   10.114526   94.021439
H   26.759638   81.705200   59.092041
H   24.458771   62.571690   45.238853
H    9.845272   25.512352   22.920300
