100
TIME:    3.429, STEP:  3429
H   85.433258    7.564586   96.006668
H    5.885846   90.659515   94.300339
H   38.696152   20.599854   83.089653
H   82.052155   91.374626   52.208866
H   64.457809   47.606976   72.730530
H   74.849495   97.493202   18.331110
H   73.255318   92.879585   58.605202
H   50.373657   85.254013   93.354164
H   69.336571   56.609039   84.243858
H   81.135689   65.618721   41.966682
H   81.297806    4.215897    9.451197
H   24.964928   95.568909   48.848793
H   25.144058   54.248154   84.314140
H   85.297188   94.506721   18.188099
H   22.210575   63.735184   85.943611
H   63.651840   11.816284   48.404640
H   48.367409    8.773225   85.543747
H   74.417564   27.948540   80.666199
H   98.676277   22.203569   44.014568
H    0.138036   32.997578   49.794884
H   60.794998   14.849167   64.170975
H   91.121918   48.636032   27.267227
H   39.961937   66.734383   34.243591
H    0.450225   77.807159   52.406940
H    6.943955   14.221985   61.863747
H   30.935221   25.437227   67.769981
H   66.393341   99.936539   68.009743
H   43.212627   16.493820   80.116844
H   85.730804   60.197617   95.082283
H   32.475525    5.971959   55.984100
H   51.009037   29.540876   38.087379
H   82.266426   57.769463   81.824364
H   11.891188   17.600323    6.708355
H   22.984921   59.475349   27.292114
H   95.534729   99.713860   33.530334
H   70.694618   53.851765    8.850625
H    8.685071   78.957993   78.657158
H   22.265495   96.195518   64.415123
H    0.331868    6.706152   12.016809
H   40.219944   91.171600    7.820429
H    0.904467   73.839569   23.131453
H   23.442192   65.755600   63.898499
H   40.776821   84.062637   49.153385
H   60.394119   70.240845   16.003733
H   59.214375   96.601715   49.539852
H   33.848820   28.319721   97.091560
H   68.523727   11.318154   58.379181
H   56.422543   30.688032   80.745033
H   65.260056   48.459129    7.688985
H   97.794609   82.931480   43.835117
H   43.283009   38.596024   89.571655
H   71.775787   45.553886   48.955273
H   80.005211   41.891235    3.717836
H   97.287956   51.261276   83.129242
H   67.771164   59.093384   29.512159
H   97.856674    8.927588   75.895554
H   13.636268   90.604164   82.113823
H   70.725822   53.061020   25.232838
H   60.713600   83.652008   48.237453
H   32.740128   91.351883   66.081673
H   76.004494   19.108395   47.043392
H   77.212700   96.025436   40.203613
H    6.854665   73.294243   98.333641
H   78.503349   60.447411   34.043484
H   68.427162   86.975502   14.896916
H   90.696388   71.807106   48.933044
H   12.453270   66.909576   32.615215
H   43.501366   13.645217   30.128630
H   27.802856    3.400250   45.172306
H   99.858459   20.610979   94.512634
H   13.145664   62.090691   21.015293
H   91.230576   37.723404    7.676630
H   83.414001   48.692875   73.829826
H   54.728558   32.385132   99.415154
H   27.497862   33.526844   61.339512
H    6.719205   27.339014   65.200012
H   78.286385   29.343395   51.693012
H   93.080978   26.506239    3.809595
H   25.946081   43.446674   55.941460
H   31.360817   22.202610   25.509689
H   77.979752   64.756241   84.932373
H   98.605408   66.621536    0.046148
H   34.751698   64.493378   56.495182
H   86.059692    5.585670   50.230064
H   85.365112   34.398716   15.349203
H   72.375244   35.006821   79.903305
H   96.169868   54.036690   87.051193
H   11.152647   30.760178   60.082199
H   26.845596    3.251426    0.146055
H   63.169880   68.198929   46.795158
H   64.351410   58.586407    5.876016
H   32.004410   53.385208   98.863655
H    5.260114   30.404043   84.174278
H   78.653969   21.226440   58.017380
H   97.303734   42.581089   94.882469
H   77.142914   60.323677   90.336464
H   90.424744   64.463875   39.984901
H   19.453444   45.433563    1.169446
H   45.363701   51.631367   57.823082
H   52.198315   90.640358   67.414124
