100
TIME:    1.050, STEP:  1050
H   46.314857   25.730873   98.184708
H   72.062569   61.676060   44.233883
H   97.804901   49.444988   11.011147
H   81.652847   89.389366   82.609612
H   85.766296   56.919655   37.234734
H   11.734253    0.070875   82.730827
H   97.940651   32.238697   72.564140
H   37.358368   79.439987   11.785946
H   27.816994   85.340103   33.993042
H   46.145699   31.459946   48.808220
H    2.586586    8.491555   38.608208
H   15.763790   76.321846   18.188845
H   76.471130   98.180748   20.767710
H    3.092100    1.839889   37.145832
H   93.272469   76.234283    0.298854
H   59.306122   19.895817   45.881332
H   39.648094   51.435165   68.955299
H   23.582214   43.639252   63.144821
H   61.614471   22.401628   18.681215
H   64.227058   83.516724   87.821175
H    1.968129   51.687195   28.745789
H   63.028675   45.485817   29.849728
H   71.725014   86.082634    2.307486
H   21.485184   49.274845   29.092346
H   92.030510    2.901593   44.309601
H   41.844456   96.323380   90.756577
H   71.536896   98.828934   20.802282
H   43.944801    5.449766    1.479712
H   34.002365   44.355961    7.538801
H   41.254406   64.852402   66.860588
H   57.405766   16.202482   26.323692
H   32.054691   23.502571    2.060331
H   44.318623   91.659660   92.389244
H   22.467033   77.496529   27.515902
H   54.672432   79.548134   88.666595
H   63.848358   66.967484   17.031431
H   80.507347   66.082863   91.201302
H   20.593201   39.736187   96.537758
H    3.515349   58.093590   41.489677
H   64.294167   13.885471   20.645529
H   63.484116   92.210274   67.082077
H   37.253166   58.984138   52.130848
H   20.285101   69.796478   77.315224
H   12.309969   30.367781   83.397224
H   65.574730   90.463577   45.960258
H   64.541023   82.944099   87.435936
H   47.167103   82.382584   36.595406
H   56.295490    6.194162   33.545956
H   95.724480   45.487717    2.588095
H   47.911648   46.731068   10.227196
H   43.464512   68.272789   64.487900
H   56.160698   66.307770    5.130360
H   30.660357   28.096985   41.887634
H   52.375103   90.072639   78.150467
H   57.170349   50.553959    9.316076
H   94.880020   11.428446   56.882324
H   62.815636   59.249702   55.851204
H   47.873230   77.728020   86.509354
H   73.087502   83.133270   30.873947
H   89.729828    8.493605   33.745079
H   25.935740   29.741692   32.529419
H   61.644592   18.172104   47.846642
H   45.454109   35.551857   61.524025
H   15.140463   47.506226   98.630775
H   73.999779   76.982903   93.345528
H   36.842049   90.074532    8.269794
H    3.324713   84.663544   17.756393
H    7.835109   77.587509   16.398672
H    9.233017   74.340027   94.377632
H   51.655830    0.954337   99.522125
H   88.689430   23.959242   49.554325
H   87.389786   16.678261   33.497391
H   38.530289   66.367378   34.825230
H    7.080394   82.933929   40.803978
H   12.797139   30.137724   80.994804
H   50.483303   74.868675   25.278316
H   62.289127   35.539665    9.613449
H   81.311234   82.064308   72.428696
H   11.880877   50.426609   29.396332
H   48.031601   51.769867   30.462646
H   31.429607   40.144390   42.744259
H   20.105110   51.084854   98.976639
H   84.233269   24.782106   29.907078
H   22.400061    2.011452   67.524147
H    1.202574   83.206085   45.966682
H   27.125301   47.623745   14.698610
H   37.281853   27.009377   73.611115
H   72.858093   21.228733   84.827003
H   77.472847   35.709312   19.609451
H   73.503311   66.078140   61.749981
H   66.992867   30.129152   55.635815
H   55.976322   74.476219   53.528328
H   52.653709   59.090591    0.145380
H   48.714806   76.923759   97.615166
H   38.439030   55.677818   40.213676
H   80.647263   54.267448   13.215237
H   79.258438   27.937605   76.802521
H   10.720393   25.177795   39.236282
H   58.692436   41.376431   57.096828
H    4.449997   51.734112   96.555611
