100
TIME:    7.452, STEP:  7452
H   13.374100   38.636574   92.323502
H   94.671219    8.675929   47.978237
H    7.864008   10.030902   35.865452
H   82.727402   25.628590   31.692791
H   28.422640   70.068001   63.650848
H   12.456288   93.134789   16.742317
H   62.409122   64.533783   73.209259
H   34.173790   33.294537   23.975655
H   70.443489   69.813950   31.009617
H   71.219093   23.384676   99.493690
H    7.088135   66.089981   21.935484
H   71.420547   97.221069   62.487495
H   68.560402   10.926373   84.547234
H   86.103020   82.106728   24.340405
H   71.117989    4.383446   92.536163
H    1.893808   59.949829   14.459679
H   24.861702   74.861969   51.773312
H   60.425404   32.224548   41.201836
H   61.328823   90.973038   55.960758
H   91.748337   47.560146   23.699381
H   22.064468   14.346748   54.981136
H   76.810837   53.976624   84.671661
H   86.247261   34.015587   19.139719
H   26.659346   25.975801   53.624130
H   63.057930   95.178513   91.574623
H   12.470516    6.417656   89.616188
H   19.484262   32.705635   47.828915
H    3.764136    4.273857   13.095267
H   73.207329   25.195589    4.912678
H   86.736374    6.402512   75.801353
H    9.337691   90.291016   19.800484
H   36.281002   46.619152    9.395058
H   95.265388   23.258352   69.131966
H   92.966042   90.791451   57.810150
H   95.495827   95.449089   78.437943
H   20.427284   69.101379   95.997932
H   94.542984   31.628012   95.653900
H   55.985985   22.576305   48.307579
H   30.520802   19.050234   22.158028
H   61.297440   14.551764   24.341986
H   25.959826   11.880422   17.910368
H   72.199944   70.826172   60.396374
H   75.419159    8.190224   39.739109
H    3.509253   37.724022    9.352901
H   10.250378   37.873936   93.797432
H   81.932884    5.051518   13.435827
H   99.953415   30.103817   96.995506
H   56.642452   72.123169   29.665051
H   82.859383   15.275890   47.211525
H   82.196045   44.157642   62.489647
H   42.989902   50.201218   31.980782
H   67.295761   72.249130   84.859283
H   63.451069   65.217957   70.069374
H    4.123573   85.617416   60.652359
H   47.455856   11.662221   63.733799
H    2.877216    4.694942   38.943130
H   68.675110   74.522041   64.734657
H   71.164474   73.137856   21.608919
H   77.997368   53.641613   39.395760
H   67.262413    0.572650   51.657982
H   29.778898   32.019547   33.379356
H   34.431892   58.579910   58.176323
H   79.977364   98.771515   22.464447
H   54.756107   82.357269   24.817020
H   28.104729   65.666565   89.540977
H   43.559204   71.812370   86.804245
H   89.680237    5.998402   26.845278
H   65.605125   43.725639   22.451294
H   28.308563   14.333130   92.855713
H   81.371010   22.939600   86.038025
H   85.397301   88.367798   72.759651
H   59.612461    4.163701    2.275485
H   21.106951   49.705341   70.682190
H   66.157463   77.781738   60.380920
H   21.441389   39.287861   66.317352
H    1.824556   85.176414   94.504707
H   43.583698   80.811226   22.903429
H   82.088837   63.453678   25.985415
H   18.864424   31.629848    0.820648
H   34.071396    3.073269   78.924782
H   56.700142    6.376718   25.378754
H    0.489328   92.797989   63.568836
H   89.230553   31.741858   39.634232
H   62.833813   49.843136   82.792015
H   89.479324   82.753502   25.364695
H   79.784103   82.779175   59.272720
H   64.857018   61.531364   78.883430
H   75.877678    8.757071   18.312271
H   10.333180   79.257011   67.243050
H    7.481423    2.678738   90.608246
H   28.989277   75.817299   90.834396
H   29.671434   55.940842   75.514977
H   63.141056   51.117321   95.279182
H   67.472420   65.277061   29.275690
H   27.752335   82.224960   87.325958
H    9.426284    1.461268   82.543312
H   71.097679   95.334900    8.617223
H   23.893236   55.183147   29.283213
H   53.716911   68.981743   20.853909
H    2.084627   87.403488   79.865753
