100
TIME:    7.213, STEP:  7213
H   29.536104   60.554146   92.542313
H    1.271860   95.724907   32.907627
H    3.755603   92.836510   38.671703
H   82.687286   35.475677   44.794079
H   30.564253   50.911098   70.131302
H   16.162876   93.393715   93.073593
H   74.935822   48.394703   54.519146
H   52.958717   12.618642   45.920578
H   76.318565   92.792755   46.054638
H   77.746956   19.952990   90.135872
H   29.319336   56.473240   44.956627
H   80.541321   85.241165   79.500053
H   83.800591   25.391766    8.298790
H   97.937050   82.843391    6.151738
H   68.215096   25.732109    4.030473
H   11.504051   80.853577   34.299316
H   44.080605   59.053440   30.016199
H   55.314342   43.854355   49.485657
H   57.607212   80.947845   43.370007
H   98.188675   52.634739    7.427141
H   36.247070   38.140625   61.467060
H   53.897675   53.659348    5.024692
H   89.438255   35.959358   25.978476
H   48.866623   23.116671   71.374420
H   71.606148   14.132561   89.809547
H   13.597393   13.462460   12.107036
H   40.093884   42.641479   43.086185
H   23.930031   93.118172    5.194822
H   68.010567    3.512067   16.209772
H   77.571838   12.318159   56.801262
H   99.931145   68.858475   38.709404
H   21.190334   53.221775   31.520500
H   78.431526   40.744545   47.600960
H   82.867912   12.694238   67.879105
H    1.443909   13.544685   63.897934
H   99.651802   50.382095   96.749184
H   71.618881   40.380493   76.821564
H   65.863823   26.950703   31.442719
H   40.609814   24.257025   45.318787
H   83.809227   36.926334    5.537911
H   42.293732    3.680363   12.279932
H   92.341499   69.888931   48.195835
H   73.362335    6.756556   22.476742
H   18.769810   33.712486   85.984367
H   30.981812   47.302868   73.345894
H   85.018120    0.493711   12.464853
H   98.086227   17.105530   94.701637
H   56.627865   69.661545   14.877106
H   75.872017   35.069172   56.746216
H   77.177979   40.519909   79.199684
H   43.006313   73.274841   29.461720
H   55.680538   94.425629    0.548060
H   58.493176   63.832153   83.949287
H    9.657669   89.515900   50.105667
H   66.485123   90.717598   61.700680
H    2.579542    4.946347   47.079254
H   53.523708   81.418236   42.003838
H   88.961105   95.708214   27.765715
H   59.149979   43.541660   57.743065
H   83.035042   82.203415   58.455711
H   14.701946   43.133324   52.012939
H   42.914467   60.804489   68.990219
H   63.752499   15.080661   38.853394
H   38.343456   81.055344   31.306591
H   18.618359   84.754181   67.284248
H   58.241425   83.693810   72.672699
H    8.855726   97.735474   15.305732
H   82.114418   30.057116   11.025710
H   16.396126   31.506149    7.845010
H   76.518028   10.934134   86.544617
H   92.986397    4.629228   75.626076
H   79.292839   12.101369   84.756493
H   36.690582   61.526608   76.808899
H   71.419868   92.908875   74.581757
H    9.929193   38.935940   48.196156
H   96.175102   69.859642   10.586509
H   21.877220    1.496290   18.664877
H   70.860184   79.080498   12.785750
H    7.403865   32.331867   98.154366
H   45.792374   16.093071   99.514900
H   52.021233    3.904153   11.093883
H   82.554146   91.248077   83.564476
H   74.114357   27.744909   16.872414
H   46.391987   29.391483    4.621726
H    1.116423   97.705589   48.532875
H   85.283554   74.001205   42.675903
H   48.894749   78.908607   67.487022
H   72.033897   27.882067   20.790306
H    5.372673   92.564369   69.197762
H   28.612371   12.512470   82.063675
H   19.208424   62.911247   85.787155
H   11.987856   37.965515   70.960060
H   47.820637   43.945789   76.796944
H   44.374817   50.777184   13.160338
H   31.885128    3.632249   81.833801
H   89.685791   10.898734   94.887901
H   90.068596   81.619095   22.362869
H   24.354563   43.358234   34.081161
H   65.102379   67.949684   40.873295
H   87.238503   93.537491    2.888509
