100
TIME:    9.116, STEP:  9116
H    0.844607   86.041084   90.800064
H   48.714188   98.845566   52.898792
H   36.466557   29.744984   16.332458
H   83.006699   57.071526   40.483734
H   13.511995    3.444825   18.533604
H   86.654785   91.332054   81.534241
H   75.199516   76.894493    3.336250
H    3.386673   77.251328   71.193611
H   29.539192    9.825841   26.267092
H   25.769003   47.277256   64.648994
H   52.306915   33.042938   61.649101
H    7.907379   80.628670   44.041847
H   62.452591   10.209404   19.184788
H    3.712148   76.977821   50.972515
H   91.328926   55.746773   12.513084
H   34.989349   14.410388   76.333069
H   91.052437   84.923302    3.253797
H   96.005447   51.254326   83.520584
H   87.251343   60.782742   43.627216
H   46.913334   12.225538   36.992241
H   23.320351   48.691238    9.820602
H   36.340145   56.185608   42.966660
H   64.030464   20.487787   71.530807
H   72.050751   45.882050   30.040388
H    3.544683   63.217194    3.861876
H    4.623344   57.363815   33.025532
H   75.996696   63.537830   80.842941
H   63.359009   81.943771   68.101097
H    9.389524   76.166924   26.253296
H   50.540581   65.218430    8.084743
H   74.828835   39.505093   88.150192
H   41.347034    0.648618   55.350288
H   12.475147    1.512931   19.038229
H   63.274857   38.295624   87.709389
H   54.083717   69.460884   79.677979
H   65.075760   99.436157   90.767464
H   54.141441   70.687263   26.770346
H   87.210869   92.125099   65.730721
H   60.284718   82.795738   60.904221
H    4.568506   58.774727   55.263329
H   12.237661   68.972351   57.113491
H   31.967163   77.351562   45.348362
H   89.739471   18.172604   59.929867
H   97.258705   65.661171   72.047554
H   65.909363   72.231804   36.192913
H   60.454514   36.784557   20.196081
H   12.962163   20.597612   12.973907
H   56.744015   89.261841   32.623569
H   31.499847   77.462746   80.833740
H   17.128767   69.487541   46.142452
H   42.875645   89.552208   49.525696
H   48.166943   17.841515   75.627327
H   97.957130   74.866394   73.430557
H   65.581970   58.472252   34.079292
H   14.965317   57.488297   77.876617
H    4.949726    2.944576   82.296631
H   74.165909   26.508369   22.995031
H   47.259460   15.993410   78.747459
H    9.238205   23.952463   11.649740
H   57.455662   28.474194    4.329857
H   34.745670   54.633739    3.641998
H   75.373253   43.091629   82.885368
H   92.945740   85.223289    8.358978
H   69.020386   91.421722   79.640976
H   94.152267   32.763889   44.502323
H   41.338509   89.090324   85.193428
H   56.174881   63.523235    7.182087
H   50.661331   38.891731    2.000122
H   11.241219   94.768723   88.492920
H   15.166213    6.518555   82.508728
H   32.551853   75.146980   52.802620
H   22.587049   48.913475   24.245281
H   12.611671   67.394279   28.015102
H   29.530743   72.467323   61.511757
H    1.598635   41.738056   92.482986
H   41.166389   91.822868   82.537857
H   94.709793   36.787640   52.418076
H   60.258900   54.654106   17.891891
H   98.659981   26.742153   19.391321
H   52.467918   12.427336   35.569603
H   89.276314   23.591562   24.834312
H   25.353680    3.592697   24.359720
H   94.480766   59.569981   98.104118
H   77.314690   92.234840   30.811604
H    8.457840   78.659286   64.059692
H   41.487576   43.900208   74.825867
H   75.991875   40.544701   58.229256
H    2.639190   75.603920    1.059266
H   44.868412   86.608299   53.633675
H   60.362888   34.219589   50.090553
H   97.086937   65.666214   25.975365
H   52.790585   81.089935    7.225243
H   69.806702    1.038818   23.958857
H   28.291578   66.230087   41.475414
H   98.979050   33.173992   25.561319
H   46.865829   35.750427   96.595459
H   39.016808   90.827446   12.918507
H   20.681322   37.520138   95.874718
H   74.447868   76.167290   81.477074
H    5.442173   44.702198   19.566441
