100
TIME:    9.505, STEP:  9505
H   74.537750   50.367714   90.443924
H   37.970627   19.925503   77.426323
H   43.153088   57.731544   11.765757
H   83.071991   41.045219   19.160738
H   10.026274   34.624649    7.986839
H   80.624146   90.910622   20.057522
H   54.811832    3.160157   33.756557
H   72.812042   10.905783   35.476318
H   19.976830   72.424927    1.780896
H   15.142672   52.862720   79.879921
H   16.123077   48.695297   24.177534
H   93.060692    0.127338   16.352791
H   37.647430   86.663582   80.526581
H   84.451050   75.778816   80.575005
H   96.053719   20.999367   93.805687
H   19.347660   80.386826   44.043030
H   59.771461   10.653418   38.666000
H    4.325781   32.325478   70.034744
H   93.311661   77.100479   64.120132
H   36.433910    3.964571   63.477196
H    0.236057    9.964695   99.261520
H   73.633957   56.702011    9.839691
H   58.836754   17.325560   60.401428
H   35.906155   50.535614    1.149707
H   89.631699   32.366554    6.733264
H    2.788358   45.896103   96.418816
H   42.452324   47.366100   88.559311
H   30.537661    0.100982   80.957756
H   17.848431   11.460154    7.866075
H   65.456917   55.590775   39.008430
H   90.136925   74.386932   57.373749
H   65.908829   89.899277   19.338585
H   39.877068   73.051468   54.082420
H   79.710724    2.646226   71.321007
H   44.402641   40.008095    3.343826
H   98.891266   29.905424   89.544716
H   91.452271   56.441658   57.422138
H   71.131142   85.008232   93.183189
H   43.863689   74.319603   23.207134
H   67.927826   22.356430   85.868484
H   85.652374   82.321671   66.278160
H   99.184105   78.877029   65.206322
H   93.087189   20.506805   88.028893
H   72.423866   72.190407   10.082553
H   32.167885   56.886723   69.482620
H   55.435905   44.204144   21.776453
H   16.003452   41.754505   16.709528
H   56.767757   93.268417   56.692707
H   42.869621   45.245663   65.317902
H   25.293280   75.411339   18.942963
H   44.206974   52.100044   51.540955
H   67.072052   81.745911   50.092079
H    6.025295   77.121948   50.837776
H   56.574074   52.124054   51.245247
H   83.992378   91.577408   81.182785
H    5.434225    2.535386   69.054153
H   98.828613   15.283972   59.992058
H   18.294100   79.256981   68.728050
H   39.918575   40.390572   81.786812
H   31.786861   58.375126   93.265785
H   59.286694   36.544788   73.316353
H   61.566887   39.470871   65.286110
H   19.354710   58.678978   81.684082
H   95.730896   93.540756   69.081421
H    9.591899    1.693705   80.727715
H   17.442410   69.751915    8.194383
H   24.964798   76.973358   25.964012
H   23.790558   61.138618   20.596573
H   30.629900   66.817657   64.097321
H   23.066589   26.056170   81.683670
H   20.198177   48.678112   48.137184
H   90.553642   35.997459   52.757671
H   87.248306   48.153286   18.040211
H   20.968540   47.848118   38.398262
H   20.336061   42.310848   21.976950
H   50.363708   16.753704   56.362427
H   30.039902    3.117611   59.318291
H   78.534218   29.219765   39.376045
H   17.313551   25.599537   23.733263
H   33.390678   91.236427    2.057070
H   96.891777   27.615946   48.084328
H   54.542671    6.117953   91.815636
H   19.085375   66.075478   35.151363
H    4.078389   25.522858   95.283012
H   89.517120   54.324226   26.350611
H   32.533619   58.190331    1.839138
H    1.972311   12.261140   76.778221
H    8.894920   44.477272   97.028183
H   52.940922   64.949043   50.452156
H   25.968916   18.214058   63.994858
H   13.006962   86.672546   34.190331
H   81.572647   10.346504   14.635964
H   94.742447   12.711271   54.040825
H   64.527260   89.726486   69.791405
H   92.253937   98.328865   34.499367
H   78.995605   20.390039   76.503220
H    8.140416   13.151059   90.546539
H   19.930460   56.766544   88.063377
H   55.916710   77.847084   48.894810
H   29.603638   34.721371   82.093307
