100
TIME:    4.854, STEP:  4854
H   89.066566   76.884834   94.702042
H   66.419624   67.896362   84.166260
H   63.190514   23.119946   66.368690
H   82.291336   32.666435   74.099739
H   51.694214   61.827011   34.091843
H   52.752285   95.949394   59.454845
H   98.572884   89.102676   70.042130
H   38.371468    8.535232   62.516758
H   34.307350   19.601212   94.544487
H   42.192589   86.079613   97.765503
H   48.747772   61.553761   72.186966
H   70.578789   66.996605   47.415718
H   34.323257   68.059242   42.704102
H   14.739923   90.114479   26.631533
H   39.543434   36.448242   17.444489
H    6.354600   87.180374   30.117039
H   33.777412    3.026049   15.267118
H    4.867527   58.637249   31.260775
H   20.871094   81.984802   19.090273
H   61.739220    2.735857   46.815498
H   76.233482   72.986847   25.498711
H   27.738052   50.527740    5.915322
H   20.936134   55.144951   93.470810
H   68.052292   94.896210   46.573143
H   55.976959    1.212173   72.387733
H   24.419050   83.160553   33.970188
H   43.513191   40.702221   96.276649
H   22.975685   83.008026   27.219217
H   16.717003   89.485069   27.720417
H   87.117630   70.703117   69.267708
H    7.089744   57.322361   25.345909
H   72.241768   18.402359   49.904945
H   12.266108   13.340719   35.083611
H   83.194244   28.882507   67.259880
H   60.114120   91.994797   20.303391
H   94.587906   65.614769    4.166585
H   45.360550   26.772388   90.941635
H   63.365116   70.124733   64.973488
H   40.184231   75.657219   73.923706
H    6.001257   57.768799   19.936579
H    3.515673   22.736448   56.703838
H   95.370598   29.707502   30.844484
H   53.051182   92.607941   52.082718
H   69.398239   94.117065   55.333977
H   35.607319   40.376884   71.480370
H   15.464378   55.499439    2.879881
H   79.656540   88.814415   72.060478
H   56.498646   45.364594   68.915947
H    6.919536   30.441418   50.847183
H   27.680614    4.612333   44.168526
H   43.174290    1.020710    4.595776
H   41.027199   13.324083   55.406960
H    9.557908   50.153870   20.955832
H   64.280907   28.006310   46.009483
H   54.312439   83.983650   41.633198
H   99.639664    7.427786   27.385193
H    3.975302   49.486687   17.643379
H   64.616592   18.487207   88.526718
H   73.100670   43.862854   38.838814
H   38.704556    0.881700   25.551277
H   65.894714   52.837429   35.939674
H   26.637259   82.761734   75.727081
H    3.597948   76.054733    0.617100
H   76.355751   68.204956   95.351746
H   24.985300   73.163910   47.601185
H    3.157105    0.966447   33.189690
H   98.122528   16.178516    1.412618
H   45.066856   95.142105   98.251869
H   98.823563    1.008852   55.799355
H   28.728693   92.284180   91.511993
H   67.896080   65.133850    3.919572
H   73.731964   90.429993   12.008517
H   90.501068   78.207069   37.292336
H   23.353344   42.208973   14.745415
H   96.202766   35.559887   69.364105
H   40.410484   18.668184   69.315781
H    7.666323    5.833477   76.894051
H   60.030071   33.328945   82.508278
H   94.280708   39.260998   71.841667
H   61.475861   44.594776    2.744864
H    5.857246   79.498520   70.101173
H    5.526114   75.927872   80.888817
H   24.900766   88.295349   92.213928
H   84.097046   27.526579   20.079430
H   15.979472   45.264961   77.211586
H   39.577534   87.350105   78.859634
H   91.342400   50.427582   55.001007
H   34.087387   16.671728   45.263817
H   56.418076   23.909086   88.491341
H   37.179737    9.567619   97.737152
H   22.668388   35.533993   35.969402
H   37.445744   60.546402   26.016912
H   96.604439   73.165504   94.371811
H   16.384872    7.663215   54.098019
H   72.668037   14.937401   27.625332
H   94.842056    4.053007   16.733788
H   77.314781   46.241680   58.031021
H   24.682821   57.566589   78.360634
H   77.479797   57.773983   38.463913
H   40.711140   54.070286   30.138948
