100
TIME:    6.498, STEP:  6498
H   77.889236   26.122614   93.196915
H   21.016479   56.982388   87.825233
H   91.461456   41.395699   47.066975
H   82.567276   64.932770   83.985596
H   36.969055   93.600784   89.518433
H   27.252926   94.168327   22.264629
H   12.410581    0.112685   98.605141
H    9.156311   50.760815   11.568479
H   93.894630   61.537186   91.060707
H   97.275917    9.685808   62.140720
H   95.826904   27.703482   13.829601
H    7.828850   49.401707   30.393818
H   29.415939   68.643578   79.347588
H   33.338234   85.047218   51.741573
H   59.530708   89.599449   38.413525
H   40.253937   43.390236   93.649902
H    1.576511   11.763774   64.926918
H   40.023930   78.646454   74.270058
H   46.473522   50.953789    5.703071
H   17.450859   67.817421   58.746666
H   78.676193    9.320332   80.875298
H   85.349930   52.710175   65.913559
H   98.984535   41.774406   46.435593
H   15.299717   14.563204   24.475130
H   97.179268   70.836807   84.529091
H   16.924772   34.562439   79.374062
H    1.748687   72.364334   28.897688
H   84.259262   59.744377   81.562790
H   52.463768   38.641094   50.007782
H   50.154926   30.014519   99.961441
H   71.794167    4.744292   95.277931
H   76.044983   72.976868   97.711678
H   28.067127   93.058159   83.188110
H   52.658028   78.219833   98.001709
H   19.239044   67.680275   20.394175
H   37.497341   94.379646   98.996651
H    3.042157   66.564575   20.482153
H   95.419106   40.037289   80.987099
H   70.791199   39.835197   14.607901
H   51.153996    3.861835   49.284077
H   91.159775   79.144447   95.435768
H   52.597961   67.085052   11.694798
H   67.209076    2.467427   70.830589
H   64.422897   21.711447   16.075987
H   93.002495   75.512985   12.161536
H   94.248009   86.856247    9.560057
H   92.500290   78.221085   87.839226
H   56.586445   62.297272   70.637344
H   54.970749   94.286171   85.266434
H   62.166439   29.636557   29.191385
H   43.055408   42.303833   21.925613
H   20.926403   60.774406   47.483009
H   43.660984   59.686340   25.474577
H   26.213646    1.179154   18.555012
H   23.414711   28.058315   55.618336
H    1.689010    5.698458   71.419540
H    8.197734    2.049212   74.001289
H   42.200836   63.231636   46.182480
H    2.761147   13.326442   12.631683
H   30.217911   27.245922   78.792015
H   69.599419   76.383682    7.761459
H   68.291206   67.459610    1.338660
H   15.209246   63.871254   87.883087
H   89.245712   77.160461   50.720997
H   90.239380   41.859867    0.699024
H    2.165101   19.238091   30.396315
H   66.221786   73.013336   80.785294
H   31.504585   89.164406   76.844574
H   80.761940   82.881500   52.690456
H   62.030243   74.973564   88.050201
H   15.691319   53.277390   84.201363
H   38.177334   35.869141   32.374611
H   83.309158   96.889923   95.137756
H   87.163048   38.160915   17.064459
H   75.464714   37.905376   93.990128
H   79.275459   24.033215   58.695366
H   56.940029   63.383389    5.984581
H   37.268185   25.831591   73.300911
H   73.114616   34.432049   90.179131
H   80.857224   55.043007   61.112663
H   38.028450   96.506454   68.359314
H   28.902010   86.611313   43.381618
H   28.888031   15.787536   48.780624
H   97.202019   68.207054   69.924431
H   35.931053   42.432007   17.844025
H    1.736393   47.737373   93.023926
H    1.141450   30.895256   33.393166
H   60.534721   85.097534   28.203674
H   90.534286   32.373405   75.045540
H   91.828018   41.931377   56.503067
H   89.947563   24.305550   70.687668
H   59.085094   84.191269   57.336098
H    1.987910   22.491207   21.504892
H   75.273140    7.399159   64.949158
H   44.246223   67.679245   65.403290
H   30.629776   39.132111   31.818954
H   46.821434   40.586456   63.483429
H   25.734682    7.980600   48.433311
H   99.163506   64.862144    0.760654
H   42.826351   11.886112   71.768181
