200
TIME:    0.380, STEP:   380
H   13.773122   62.010365   17.733490
H   29.212111   34.922005   95.580620
H   15.203349   75.265930   52.243950
H   22.561707   78.610115   40.838730
H   13.723727   87.277527   51.645638
H   85.064148   49.015175   61.405479
H    5.387572   55.204796   52.361172
H    6.025949   94.931915   20.102924
H   93.114052   85.407379   44.304119
H    5.932947   72.937828   90.550301
H   17.073465   97.584908   97.385803
H   31.356720   45.759644   19.412989
H   14.610301   91.654182   55.553764
H   97.786354   53.797604   49.012020
H   12.862632   73.022316   42.634125
H   25.219654   20.198009   51.302910
H   90.793411   14.275391    8.634830
H   33.237671   89.897232   41.027920
H   69.683472   24.633442   44.544762
H   90.501656   77.782066   32.043629
H   59.765221   83.746933   19.426441
H   86.912270   54.165627   65.179642
H   90.812859   61.523544   45.776985
H   11.573586   89.335579   91.147087
H    9.331595   18.334616   40.414776
H   18.545202   68.549362    2.332678
H    1.606842   61.605900   54.710831
H   97.723175   75.904732    1.099648
H   16.965122   52.274361   37.518585
H   86.722977   24.514765   93.783066
H   13.178711   57.298252   16.365978
H   29.380199   66.787582   97.049934
H   23.740578   11.998024   74.889206
H   91.793068   63.730659   40.737350
H   41.269993   84.016098   33.154179
H   28.488121   46.729889   81.081856
H   90.282715   71.407303   87.005959
H   25.990013   48.376759    8.872772
H   47.888824   41.387417   47.543587
H   88.740128   39.112774   58.227631
H   80.545967   98.683914    6.171183
H   20.307695   40.171173   35.679909
H   74.181107   84.565834   55.526798
H   36.969376   70.033516   23.755392
H   33.560379   80.566544   49.416100
H   39.089653   10.195023   44.210476
H   82.612396   19.353279   99.248772
H   86.707466   65.548470   42.614700
H   92.494644   23.439358   61.267269
H   57.107403   18.433294   99.789398
H   74.877853   68.724113   22.320408
H   15.786331   38.107647   66.551674
H   55.952019   90.415733    9.759778
H   20.322968   85.138107   83.776375
H   71.272995   73.271378   86.245613
H    3.510954   68.901115   83.232574
H    5.030942   17.275246   48.152821
H   68.938217   61.833942    2.776613
H   25.227022   77.181931   10.512544
H   39.865299   95.203041   64.406189
H   49.966103   12.644968   38.146156
H   92.452103   16.756533   50.139103
H   75.304276   28.106668   80.161713
H   27.518105   65.352074    6.793277
H   73.598892   78.166168   23.654432
H   33.247986   22.000235   35.379776
H   80.945656   20.208916   88.727577
H   96.557426   91.768227   90.043312
H   21.502306    7.745147   60.207802
H   44.431072   44.070095   50.975117
H   58.403748   79.013550   77.026154
H   28.205830   20.141909   43.784832
H   81.937149   28.083447   94.807800
H   12.426349    5.887406   64.648109
H   80.849747    3.137854   61.029922
H   56.852425   14.133950   61.962631
H   94.835846   35.162064   70.165291
H   21.369808    8.519262   43.180244
H   12.594936   35.930782   31.837719
H   66.166565   89.886154   87.622223
H   49.310024   27.735907   99.055328
H   32.792309   66.072701   83.529228
H   10.453506   15.201983   86.183495
H   20.108675   66.437538   98.414520
H   33.922791    0.804283   53.814682
H   28.611496   80.875946   24.868469
H   42.129860    3.075838    2.092280
H   74.167244   13.333742   16.722683
H   69.970657   72.398026   77.675049
H   22.742912   92.322334   53.325283
H   35.374062   36.101368   80.131775
H   83.080238   89.763794    1.422630
H   53.910313   15.283157   91.742554
H   53.750019   89.403893   72.948814
H   28.672379   55.032433   73.770622
H   63.474342   30.839409   22.479155
H   81.204704    9.436872    4.358669
H    3.046007   30.614193   49.919102
H   33.845604   68.375595   53.377388
H   69.638664    0.202440   27.284586
H   16.112455   84.297241   75.532204
H   95.778297   78.774643   65.092354
H   26.081465   32.053680   32.459301
H   28.603159   68.197968   95.721909
H   25.153154   25.632904   29.626492
H   92.965553   19.918520   37.336281
H   72.290230   31.835138   55.607681
H   63.926563   39.649666   13.328064
H   76.354454   38.322456    5.902302
H    8.864032   26.108408    6.222460
H   49.036507   94.850197    0.894351
H   91.615448   66.865906   92.105858
H   54.662476   81.899261   90.890175
H   62.749931   16.379120   71.343750
H   59.178322   87.798340   21.863869
H    8.325011    1.701641   85.250153
H   26.818867   10.414050   85.812180
H   40.060818   33.887424   31.180046
H   24.179152   62.969807   76.620407
H   74.477242   49.469051   54.565308
H   42.015755   22.689762   82.932274
H   12.248371   24.163532   52.306282
H   35.611641   15.918024   28.182249
H    2.014615   62.280708   11.734396
H   72.727226    5.485746   88.182854
H   52.851437   66.182922   22.828253
H   91.906715   49.843613   65.647964
H   72.366386   88.667992   36.184978
H   94.190590   47.415997   81.699806
H   74.530930   23.485779   68.886711
H   54.260353   80.186920    8.761532
H   76.326317   87.439926   12.628530
H   91.980598   89.406105   98.416565
H   94.055786   16.592514   51.430496
H   11.342229   98.838715   49.983627
H   58.629288    1.447173   81.619072
H   69.124496   86.921272   62.308113
H   92.412498   59.849689   80.986305
H   49.972595   46.291489   71.516975
H   43.523781    2.375358   91.567413
H   57.548656   58.951614   19.432312
H   50.793289   45.264595   49.510517
H   50.504997   59.337818   94.662109
H   51.297981   21.459875   80.444374
H   46.882595   65.123978   53.646488
H   51.069756   64.387985   23.141075
H   48.042412   96.164696   46.279469
H   38.829659   68.207359   68.021751
H   68.927948   58.947090   96.552704
H   13.924700   90.203270   84.757828
H   71.285530   63.687572   50.287296
H   39.680695    3.235975   43.765045
H   82.679504   26.603756   98.549850
H   13.610777    4.356237   72.492897
H   19.164066   57.576321   63.286247
H   67.658134   43.876041   58.368134
H   60.776714   65.081955   82.413498
H   48.036499   34.413651   13.004047
H    5.974292    1.206816   97.413002
H   62.110081   51.231537   83.613693
H   55.331146   78.721672   79.693504
H   37.030926   22.330784   34.331131
H   71.245659   28.466045   37.173840
H   16.413527   24.292439   65.208801
H   57.613701   26.838804   11.200144
H   14.325767   59.984722   61.536518
H   72.489098   95.302559   53.705845
H   23.754513   37.302269   53.801899
H   95.975273   27.714926   36.526352
H   32.861885    9.403214   88.826813
H   76.690430    7.298744   35.964325
H   41.326515   60.247139   57.888031
H   40.377945   71.438614   86.484818
H   69.502007   71.189110   77.487411
H   64.930908   93.983383   92.648628
H    5.229795   48.417076   23.421061
H   33.979527   57.294548   92.764442
H    2.970785    9.334373   66.670364
H   72.021248   18.125017   67.497421
H   79.640831   55.956871   88.359947
H   78.861816   90.206352   38.464218
H   22.051497   30.276943   74.727097
H   59.189739   90.020493    8.840900
H   54.529572   25.479504   82.340736
H   87.333420   82.262146   77.820053
H    2.191285   37.405106   84.654884
H   36.226868    2.126474    2.367183
H   83.695129   73.154732   30.425190
H    2.564079   61.797718   68.143448
H   52.159424   57.511745   67.471817
H   54.508274   26.392464   78.301704
H   46.505226   88.733826   22.841169
H    7.210222   20.854675   61.013229
H   32.657581   69.118439   36.134708
H   80.090225   48.002056   21.358330
H   75.669937   10.726978   27.648304
H   10.391875   89.376854    8.192121
H   24.840773   94.623741   43.018425
H   10.046378   12.003626   71.755775
H    6.547556   30.249676   95.803757
