200
TIME:    0.635, STEP:   635
H   21.608675   61.164074   22.093832
H   31.484936   38.644711    5.932805
H    9.858829   86.427238   64.804070
H   31.157393   81.590614   34.170544
H   11.016327   93.740463   47.979351
H   76.768555   42.094074   53.857929
H    9.082068   55.023865   57.296894
H   11.740355    5.942919   11.051640
H    3.469723   81.584480   38.083397
H   96.956482   69.365898   80.492088
H   25.961462    3.032136    5.444039
H   32.411179   52.565960   31.563095
H   20.868961    0.117098   45.102562
H   85.734009   54.873463   61.299770
H    0.551236   74.985321   42.006702
H   17.786888    9.691360   45.802021
H    2.789122   26.218302   96.254036
H   27.182703    2.155925   36.488106
H   78.167778   15.401595   48.298595
H   91.312927   74.280174   22.158566
H   62.825485   96.476311    7.743913
H   81.235313   63.912560   55.352943
H   83.176788   59.669487   39.658401
H   16.974768   91.660446   90.347488
H   20.415230   28.590296   31.315693
H   18.334116   79.866310   93.910629
H    6.545145   66.722557   64.963593
H    3.575548   86.424026    1.770632
H   27.705231   44.523506   36.025417
H   75.199806   31.345886   84.962189
H   12.845788   67.951790   16.677744
H   24.743111   72.764145    3.328210
H   17.579193   17.484985   78.003944
H   83.353508   64.008865   45.194481
H   29.032707   73.479294   31.214321
H   20.158482   40.915775   84.005936
H   97.601669   65.903496   88.920326
H   13.376827   54.972961   97.407570
H   38.451225   32.256233   53.211788
H   86.294640   38.064152   48.266693
H   80.621841   86.771645   14.635279
H   33.000107   34.823978   28.118490
H   69.589737   78.707947   64.995529
H   36.401291   82.418541   32.875343
H   42.273281   88.346581   58.618294
H   35.501186    3.558690   46.983780
H   87.417770    6.860112    4.839381
H   80.499390   65.544579   33.447525
H    2.356390   13.762519   61.451118
H   47.982056   19.584055   89.001625
H   68.811798   65.496536   12.214622
H    6.038669   42.496685   72.034081
H   62.830082   83.124649   13.091128
H   16.527792   90.519348   87.552582
H   60.479385   67.600258   77.998657
H    0.242035   62.618893   91.582642
H    4.303205   18.240211   45.417454
H   71.724167   67.761864   98.173927
H   19.846268   82.107925   16.679981
H   33.967529   93.771156   59.692253
H   49.140240    7.669849   30.695795
H   97.035606   17.360609   52.094208
H   82.329460   33.389046   71.558731
H   33.696648   65.715881   12.486744
H   77.698051   81.967667   34.081898
H   23.244793   31.907185   39.963364
H   71.420509   14.830053   93.995979
H   95.129433   92.347984   95.091873
H   30.572693   11.191106   56.980225
H   42.963196   48.514580   50.961498
H   58.291882   83.423988   83.847061
H   21.039110   13.439283   41.999840
H   90.030411   32.491940   86.269020
H   20.733997    0.282321   72.072121
H   83.954758    7.265709   49.039833
H   63.297852    5.131373   60.296314
H   93.758041   44.655109   66.558342
H   11.925019   13.162674   34.460533
H   14.533623   47.291504   26.189945
H   62.323784   88.463997   75.529022
H   60.132816   23.426147   95.269394
H   44.005173   61.486633   75.646080
H    9.458628   17.999119   78.722519
H   11.793140   74.775932    6.725405
H   24.842190    3.500801   46.588139
H   35.795467   71.953903   19.560184
H   53.558674    3.607202    2.676902
H   72.046654    3.842886   26.340727
H   77.775986   73.018639   78.593323
H   21.465694    3.752357   50.519878
H   24.684870   38.302696   78.997551
H   81.304001   92.001114    6.986629
H   66.024101   12.407228   84.480019
H   42.315369   80.242554   79.950653
H   35.133621   51.583069   84.391083
H   52.914192   36.540684   10.489638
H   84.663795    0.616889   15.340789
H   96.036179   34.576366   52.333462
H   28.067482   65.821159   54.281071
H   74.072449    4.345727   27.346842
H   27.489714   91.347717   87.539803
H    5.260246   82.632561   63.685760
H   31.367376   22.734272   36.022476
H   40.856026   68.668777    5.848512
H   24.815125   22.281788   37.893875
H    3.060908    7.433788   25.397476
H   84.369812   35.001434   54.420929
H   62.423668   49.440372    3.467616
H   82.834900   35.103634   18.232853
H   17.055540   22.553015    7.470496
H   52.391514   92.634277    1.073762
H    1.854470   73.278259   95.010483
H   50.233555   84.858360   85.343567
H   61.886131   10.881636   64.767975
H   50.668724   98.416855   12.922773
H   97.918381   94.242393   96.753868
H   16.334591   14.004705   88.784897
H   38.767063   46.438789   26.082848
H   33.863247   72.543587   64.017487
H   81.206711   54.558468   64.077820
H   44.677193   24.384289   74.576370
H    1.245696   18.122768   59.807140
H   41.759407    5.163081   35.747063
H   98.257713   53.104778    0.567572
H   65.096992   99.172119   79.749130
H   62.193707   73.159470   17.904690
H   85.568291   51.034256   55.799866
H   66.788651   90.667961   38.338642
H   97.328674   38.185593   75.888611
H   86.890663   22.277140   73.231003
H   64.553970   71.082001   18.506519
H   66.538528   89.969070   18.642056
H   91.147926    1.812459    0.313526
H   81.552086   23.130379   54.568638
H   23.939404   94.227890   38.265907
H   51.837563    1.119905   77.862320
H   69.546669   87.571068   75.002472
H   94.587563   51.887749   76.957184
H   56.637863   49.857582   71.456665
H   43.661911   90.145821   84.481918
H   70.172981   51.452702   27.669540
H   39.054169   53.012531   55.454979
H   42.307652   64.031319   86.061073
H   39.613335   12.229371   84.669991
H   58.868793   56.666908   61.984882
H   60.412998   68.780914   10.928226
H   54.073448   95.047981   44.453621
H   31.866730   58.715286   66.558739
H   75.744965   48.300365   94.017723
H   22.053404   92.987274   75.215172
H   62.297527   68.018250   48.362228
H   50.414967   96.179916   35.773922
H   94.525627   17.068882   89.598625
H   20.351519   10.209428   66.191437
H   29.275780   64.310699   67.899170
H   75.228058   44.508327   66.213615
H   63.445934   72.729698   85.432907
H   51.661930   30.322273   18.978178
H   94.303329    0.245995   87.955948
H   59.251175   40.827026   93.399536
H   57.835972   68.361908   72.913452
H   25.058064   21.009306   32.122021
H   82.222145   17.348024   37.067810
H   25.773792   31.783569   54.299328
H   55.172104   35.491398   13.705699
H   18.719183   51.871033   60.142570
H   68.098114   91.178108   56.409111
H   23.977272   48.904232   64.346481
H   99.440201   26.885658   35.924221
H   44.498867    7.478876   85.955261
H   71.818909   10.331285   35.942924
H   32.517311   50.775494   58.671093
H   45.304913   60.481270   79.309830
H   66.361969   65.089981   83.403664
H   53.078949   92.065125   80.658539
H   13.102729   49.794487   23.665707
H   31.359917   65.260536    3.431297
H    5.230815    9.577560   69.931015
H   65.499947   12.196936   64.514977
H   67.510666   58.692238   91.957169
H   74.206245   99.344345   32.535320
H   27.194901   30.588223   84.036293
H   47.447960   89.751060   13.892464
H   60.082989   25.951286   91.721916
H   90.631035   71.202003   76.769485
H    7.529603   39.556824   85.931129
H   45.106110   97.758682    8.017406
H   71.444344   83.956123   39.348118
H   95.179146   62.934860   71.057800
H   56.796513   56.124607   70.693558
H   66.689781   17.955822   76.480721
H   44.414791   95.663681   19.593164
H   12.874306   26.921217   66.855057
H   28.202812   79.295326   41.273735
H   71.339386   36.612152   20.524199
H   76.292496   11.352698   24.154680
H   12.086888   96.330055   16.798994
H   17.429893   89.555725   35.826900
H    6.645895   12.717136   60.351280
H    3.887939   21.610216   92.261009
