100
TIME:    6.185, STEP:  6185
H   99.056473   54.826134   93.483475
H   29.659847   40.020420   68.090797
H   86.078903   18.877548   50.742107
H   82.514740   77.827972    1.141105
H   39.772568   68.512451   98.005386
H   32.107731   94.507423   91.267509
H   28.814819   78.978874   74.128136
H   33.757492   23.683277   40.307972
H    1.588786   91.630768   10.762687
H    5.825758    5.191181   49.885502
H   24.941391   15.109209   43.978828
H   19.776016   33.712543   52.673775
H   49.389175   87.570869   10.448906
H   48.836357   86.011971   27.921268
H   55.729012   17.558136   53.465092
H   52.838699   70.766273   19.631969
H   26.746315   91.060844   36.433296
H   33.330364   93.877121   85.121132
H   41.599613   37.822174   89.212296
H   25.882889   74.465614   37.436150
H   97.250061   40.481350   89.371803
H   55.342316   52.294662   92.568420
H    3.163849   44.320015   55.390594
H   44.382488   10.818819   47.721928
H    8.373727   95.657684   82.217506
H   18.351603   43.815941    8.808117
H   28.739075   85.374161   22.686499
H   10.669822   45.134590   71.217972
H   45.657967   10.243788   64.803833
H   38.152836   37.761192   75.078476
H   59.475983   76.676003   20.041420
H   56.281895   81.626205   26.687599
H    6.019642   15.958349   54.990601
H   39.433281    6.904407   11.187380
H   27.028702   91.378792    1.350246
H   10.289289   69.864433   99.980507
H   73.020363   78.026978   95.819252
H    8.356169   45.766102   58.898647
H   84.001617   46.655327   44.939598
H   80.635208   33.164089   24.656984
H   12.550892   68.403221   88.061623
H   78.975815   65.857620   95.715294
H   64.515411    0.589768   48.222664
H   84.410461   16.457846   85.472252
H   20.153168   87.863724   85.377182
H   98.288506   80.886246    8.288446
H   90.054977   61.199417   84.835121
H   56.569729   59.073471   51.270664
H   45.822319   20.208504   97.750900
H   55.597050   24.871302   51.077255
H   43.076900   72.521591   18.626591
H    5.712347   89.817673   68.029366
H   37.168011   57.871460   43.653996
H   33.461227    6.286490    4.744009
H   48.336296    0.628214   52.955715
H    1.299169    6.027703   82.074799
H   88.354195   11.081195   44.232475
H   65.507721   92.790306   54.244370
H   78.074203    0.099903   36.659828
H   50.871727    3.186873   87.694481
H   49.855427   90.940933   32.164639
H   79.400185   70.372971   15.501410
H   93.959877   85.229530    9.346436
H   67.753708   75.455429   59.219891
H   77.817001   66.859573   71.551064
H   21.392101   34.798302   11.889178
H   91.334000   62.191319   65.674026
H   53.125542   71.263954   61.881367
H   65.163521    5.371666   72.321198
H   55.690102   59.231140   88.709290
H   25.631351   74.573578   87.955299
H   63.984455   46.256943    9.458144
H    3.717201   12.371803    3.162323
H   94.054817   57.969379   35.661247
H   60.373127   37.458820   70.262955
H   71.877434    3.972756   79.756927
H   28.513126   90.472923    0.433393
H   22.562878   46.298782   56.015457
H   58.104580   35.351429   86.687874
H   96.207291   72.093330   88.077965
H   31.903231   93.268326   49.651722
H    5.414334   84.581375   69.565758
H    9.089120   10.553636   18.971214
H   75.667030   41.423241   98.513573
H   51.171272   62.011223   48.185959
H    8.940731   36.239151   71.288345
H   80.236885   53.652901   18.468161
H   55.500816   10.143366   31.448967
H   84.038925   49.801033   77.605476
H   19.501337   54.809864   45.315285
H   77.138329    7.404487   64.077682
H   35.926266   60.650360   51.373260
H   81.923965   13.099202   97.300125
H   45.023449   88.409981   43.844009
H   49.657433   95.714371   58.210636
H    4.777244   51.492401   47.985718
H   71.666191   22.624540   81.484177
H   26.338846   92.492767   54.716141
H   14.073777   63.511402   26.978493
H   23.385637   19.918152    1.919201
