100
TIME:    0.183, STEP:   183
H    4.947220    5.239331   98.978470
H   96.179710   14.666714   89.544128
H   82.908630   87.069801   21.191147
H   81.507324   25.110987   30.132059
H   93.531937   87.425781   60.743324
H   25.178600    1.014478   96.868217
H   43.379108   73.695442    4.763379
H    5.502859    4.434495   91.391319
H   49.129509   68.698669   88.567833
H   69.839500   19.014416   14.855043
H   83.232819   73.605957   22.122318
H   48.857059   32.863365   79.903114
H   31.622108   50.635681    6.940590
H   46.020908    4.513036   71.167259
H   82.728661   53.675522   41.976063
H   94.165512   95.730415   17.849018
H    9.353348   94.099190   90.016670
H    5.055328   85.801254   93.201950
H   48.113899   86.030197   73.002792
H   87.695747    1.695105   28.672647
H   53.417068   37.999405   52.274681
H   79.894997   44.341476    3.672967
H   83.300713   93.133888   27.114948
H    2.038837   38.876560   93.483276
H   23.037893   71.660515   37.909683
H   45.817478   22.159069   72.019005
H   46.298763   34.869793    3.597698
H   17.099945   64.981003   72.824753
H   15.150437   65.695152   48.521423
H    8.010987   86.310440   97.937035
H   23.300447   38.452873   94.930931
H   77.312134   47.454346   82.322868
H   83.248352   55.092918   14.283040
H   85.834190   56.951813   64.041786
H   76.223076   45.086838   35.871704
H   88.466026   98.861137   20.014654
H   97.351402   97.833351   22.884838
H   56.424950   55.604816   35.355015
H   42.493710   76.601479   24.586845
H   45.956623   95.051048   52.432770
H   22.735867   62.457760   46.650311
H   15.174179   20.069948   11.397805
H   12.817826   64.597336   14.691715
H   67.673706   15.838624   98.624649
H   40.781494   24.671608   71.767273
H   75.614235   66.644341   84.035927
H   38.012379   35.612743   29.186956
H   56.249187   97.266479   79.900955
H   70.377007   17.293507   37.174095
H   29.727880   33.534771   70.864761
H   43.528835   51.976776   55.349506
H   14.026563   46.758179   62.049683
H   12.675333   23.069824   92.241524
H   72.447891    4.216328   39.891132
H   26.190781   74.548141    1.959008
H   93.795212   12.339848   86.397049
H    7.853973   84.266441   73.392235
H   12.432974   59.604530    8.841194
H    4.710624   46.501144   97.434143
H   46.943596   41.854187   58.401535
H   71.244431   70.059189    0.128404
H   92.416107   26.242020   87.074448
H   86.645805   94.673912   21.003632
H   55.606438   42.789955   22.172056
H   39.585495   46.228603   12.603265
H   90.103493   33.175678   57.006252
H   72.886101   54.687847   75.897385
H   67.724693   28.003563   74.951057
H   66.024712   36.637108   48.755817
H   34.093842   57.349236    1.345944
H   16.221476   82.953041   59.952610
H   58.876965   45.452141   70.020973
H   95.059387    9.255566   57.057186
H   26.162987   37.799122   92.332375
H   70.993698   28.904085   15.270465
H   29.984396   19.300760   83.615829
H   83.570404   10.682896   94.270569
H   40.578003   38.754612   24.546272
H   70.325691   52.964603   19.728970
H   90.550797   98.987206    5.155598
H   14.463091   31.174574   90.926376
H   55.054462   45.422684   71.478333
H   29.375092   10.311833   47.329651
H   62.759781   27.821140   46.715157
H   43.419701   37.437607   30.012447
H   47.084232   15.773292   54.492161
H   79.376869   90.047325   32.269329
H   58.901108   90.642723   93.836205
H   59.480904   83.983284   26.703701
H   50.155647    1.757442   30.753698
H   31.511690   83.312668   37.326366
H   91.826775    9.269808   37.011459
H   97.026085   33.114723   33.072472
H   64.916389   24.332506   39.157391
H   53.427906   33.337696   20.292191
H    9.036682   88.505058   57.996758
H   48.076469   78.182442   26.664452
H    7.537196   17.795807   53.107277
H   99.994530   37.639133   29.722820
H   50.606426   74.002785   80.060410
