100
TIME:    1.551, STEP:  1551
H   12.434757   79.786758   97.726028
H   58.126366   88.837837   75.836876
H    6.415071   85.489525    5.128587
H   81.736938   68.748802   55.148785
H   81.278885   97.077019   23.650185
H    3.965127   99.527779   32.346188
H   71.681267   66.069878   11.743080
H   97.980751   22.783451   65.787331
H   15.501457   37.171143    2.456405
H   32.454124   38.653419   68.427361
H   55.984787   28.650150   90.349319
H   96.641403    1.434483   82.527428
H   44.602898   67.869698   70.971489
H   78.285316    0.295306   75.272408
H   99.365257   31.485241   76.218155
H   39.162460   76.074944    4.294645
H   99.369400   84.567093   14.570321
H   34.288551   19.275742   45.776169
H   69.418495   43.420601   45.074383
H   50.730217   72.875595   21.931894
H   72.238098    1.809703   15.147861
H   11.067899   46.147079   87.190163
H   65.035942   82.008034   87.973602
H   74.936806   55.283543   91.883163
H   74.111443   63.165039   48.005791
H   39.547237   81.393372   43.797119
H   28.333965   78.004898   30.744154
H    1.673619   28.835140   18.039789
H   44.895996   89.811066   83.856133
H   60.465420   52.452774    6.688968
H   77.113686   61.130783   86.679718
H   63.688267    9.661489   55.680229
H   79.608475   55.003548   37.523285
H   43.635078   31.582741    6.410526
H   42.219292   41.676521   19.174019
H    7.407899    6.322518   15.307683
H   28.560425   47.735695   30.677923
H   99.886909   30.566425   31.891163
H   80.993790   47.398720   93.470566
H   17.106916   66.984673   60.064632
H   29.247536    9.401843   78.885422
H   92.226135   81.467918   75.668732
H   24.600508   72.800827   13.504048
H   80.317711   38.765060   32.382885
H   22.118126   70.694504   88.833084
H   58.077473   92.499733   89.469063
H   52.457203    9.407569   40.876411
H   56.322247   11.352392   64.545021
H   10.369145    3.996315   82.604630
H   58.419224   54.356609   75.185143
H   43.426289   19.904589   69.770355
H   80.508919   19.817499   72.242508
H   41.053261   31.001953   12.789524
H   40.774342   81.900505    0.258787
H   17.284370   94.473663   13.567459
H   95.506882   10.901920   39.827103
H   94.579025   44.793663    3.500384
H   10.566483   30.415081   73.605179
H   12.601524    4.301550   92.412155
H   56.667553   47.003544   19.495445
H   57.539104    6.444219   93.468040
H   43.863129   13.508354   25.176422
H   79.436676    1.386281   27.153664
H   49.544289   50.231544   85.030937
H   93.883522   36.968204   40.002811
H    6.064953   65.168251   37.892574
H   63.128983    1.986045   41.945202
H   73.227547    6.240013   40.349369
H   34.204018   38.341354   62.957977
H   61.804108   26.153467   98.467163
H   72.780907   89.870384   43.545628
H   46.079739    0.050223   70.179619
H    5.863187   41.586872   21.978390
H   96.054893   51.230011   11.028053
H   36.951813   30.850588   18.974300
H   62.328693    6.976732   91.567192
H    7.775344   92.116684   18.477785
H    4.849131   49.305252    0.094702
H   35.896553   48.958836   34.983681
H   23.461685   24.482805   87.301216
H   41.233875   45.327465   72.688362
H   57.697086   54.356766   57.083939
H   15.934379   33.143707   77.625000
H   56.865978   44.882671   21.763252
H   76.808426   51.869171   97.400497
H   15.593342   66.027824   49.489464
H   70.742500   90.582581   97.500656
H   80.923203   81.117874   79.620995
H   87.869576    7.815349   15.510120
H   29.208908   45.463951   79.661400
H   87.495827   57.179890   66.216019
H   93.045250   12.156107   63.072678
H   84.799477   74.103439   38.904953
H   97.137245    7.311804   31.395008
H   29.777145   10.799881   51.726524
H   22.027863   34.483086   87.337631
H   39.490952   56.689144   47.989822
H   12.559888   29.443512   31.220676
H   34.825829   43.536045   15.131504
H   35.563736   38.864338   48.302559
