100
TIME:    6.689, STEP:  6689
H   64.972488    8.607471   93.022049
H   15.742092   67.332512   99.867653
H   94.746017   55.137230   44.824322
H   82.599335   57.063812   73.516968
H   35.258286    8.910185   84.339493
H   24.290409   93.961403   41.180355
H    2.400509   13.010235   13.541666
H   94.144081   67.284454   94.031639
H   89.199486   43.173370   79.038689
H   92.059090   12.428650   69.619148
H   78.060547   35.388828   95.431374
H    0.538442   58.975605   16.798737
H   17.227798   57.092823   60.368828
H   23.881538   84.458504   66.277061
H   61.850594   72.538383   29.228703
H   32.574417   26.684731   77.795410
H   86.217445   24.396488   82.314400
H   44.108501   69.352341   67.648476
H   49.447697   58.967010   15.765178
H   12.305435   63.760624   71.750847
H   67.341980   90.305939   75.690529
H    3.661285   52.963730   49.648132
H   96.434410   40.221016   40.971039
H   97.553108   16.848116   10.289730
H   90.347847   55.689720   85.939674
H   16.054087   28.915733   61.412651
H   85.279167   64.425430   32.687901
H   68.142471   68.659615   87.875443
H   56.616829   55.970287   40.978882
H   57.478886   25.287315   15.144966
H   79.310478   21.871456   80.166618
H   88.104889   67.698837   80.029839
H   41.521374   79.083473    0.394898
H   60.728081   60.715775   89.954971
H   14.485495   53.218880   32.015457
H   54.100842    9.339713   98.396278
H   21.361477   59.569946   35.532261
H   87.523918   36.541431   94.466331
H   62.729656   35.673393   96.098877
H   33.164684   85.981583   64.312302
H   78.106049   85.698997   99.935646
H   36.501572   67.834061   21.445747
H   68.852814    3.613252   84.627495
H   52.227421   24.917318   34.750809
H   76.433968   67.976273   28.506380
H   91.782402   90.499283   10.336023
H   93.992477   88.608109   89.672401
H   56.596645   64.264511   82.455353
H   60.553337   78.466652   77.648117
H   66.176025   32.544292   15.836740
H   43.042294   23.863920   23.938755
H   30.211044   43.050308   34.945137
H   47.623150   60.793823   14.381533
H   21.791000   98.063202   26.982811
H    8.206493   44.797165   57.243130
H    1.926901    5.497544   64.917450
H   20.305964   96.537926   92.166924
H   27.978632   45.194237   41.262924
H   17.824692   21.397831   97.968956
H   17.614464   41.927357   73.359520
H   81.647667   67.500504   92.869308
H   61.512245   65.681808   92.697189
H   28.176268   50.837929   74.785645
H    2.360803   78.200912   45.534771
H   97.819809   26.604549   18.486509
H   90.431732    9.743122   41.689728
H   50.897720   79.617432   90.006546
H   18.310966    0.087688   85.975479
H   90.280464   69.157455   40.710697
H   65.899864   84.579521   87.648010
H    9.626028   40.281952   81.910622
H   22.428774   29.530258   46.359497
H   70.855804   87.441345   90.241516
H   82.957527   26.072964    5.716365
H   84.674309   38.177876    8.469337
H   83.789909   36.274799   45.844193
H   74.286713   46.851292    9.371984
H   46.241711   13.342535   83.848228
H   82.274666   33.871021   92.309578
H   71.490250   44.638496   44.657799
H   41.766205   98.482437   79.775131
H   43.233871   87.849945   27.403053
H   40.969795   18.981726   66.970795
H   10.342599   84.551170   52.479626
H   26.630690   30.484306   99.328957
H   97.340927   54.753860    6.287637
H   13.897982   17.008003   42.500755
H   63.606529   69.814270   26.223320
H   94.497910   21.739359   73.483406
H   74.941818   34.072620   63.330116
H   97.764061   34.618797   74.721237
H   73.217163   98.556488   60.974762
H   14.231151   28.222431   36.275215
H   93.733131   18.986658   77.828018
H   40.944176   50.570404   69.792419
H   46.405579   31.589609   21.953613
H   31.660593   51.547623   52.498947
H   25.366007   17.431362   44.599380
H   90.064659   65.686928   84.763283
H   54.689533    6.984810   53.368549
