200
TIME:    0.550, STEP:   550
H   18.996847   61.446171   20.640385
H   30.727327   37.403809    2.482023
H   11.640336   82.706802   60.617363
H   28.292164   80.597115   36.393272
H   11.918794   91.586151   49.201447
H   79.533752   44.401108   56.373779
H    7.850570   55.084175   55.651653
H    9.835553    2.272732   14.068698
H    0.017967   82.858780   40.156971
H   99.948654   70.556541   83.844826
H   22.998796    1.216437    2.757958
H   32.059692   50.297188   27.513060
H   18.782742   97.296120   48.586296
H   89.751457   54.514843   57.203854
H    4.655039   74.330986   42.215843
H   20.264477   13.193577   47.635651
H   98.790695   22.237331    0.381065
H   29.200993   98.069611   38.001377
H   75.339676   18.478867   47.047318
H   91.042503   75.447472   25.453587
H   61.805397   92.233185   11.638065
H   83.127632   60.663582   58.628510
H   85.722145   60.287506   41.697929
H   15.174375   90.885490   90.614021
H   16.720734   25.171736   34.348721
H   18.404478   76.093994   96.717979
H    4.899053   65.017006   61.546005
H    1.624684   82.917595    1.546970
H   24.125195   47.107124   36.523140
H   79.040863   29.068846   87.902481
H   12.956762   64.400612   16.573822
H   26.288807   70.771957    1.235404
H   19.632988   15.656042   76.965698
H   86.166695   63.916130   43.708771
H   33.111881   76.991562   31.861036
H   22.935028   42.853813   83.031242
H   95.162018   67.738098   88.282204
H   17.581257   52.774227    1.229229
H   41.597092   35.299961   51.322388
H   87.109802   38.413692   51.587006
H   80.596550   90.742401   11.813905
H   28.769304   36.606377   30.639042
H   71.120193   80.660576   61.839283
H   36.590652   78.290199   29.835390
H   39.368980   85.753235   55.550896
H   36.697342    5.770803   46.059345
H   85.815979   11.024515    2.975880
H   82.568748   65.545876   36.503250
H   99.069122   16.988094   61.389835
H   51.023838   19.200468   92.597549
H   70.833817   66.572395   15.583167
H    9.287889   41.033672   70.206612
H   60.537315   85.554573   11.980980
H   17.792850   88.725601   86.293846
H   64.077255   69.490631   80.747643
H    1.331675   64.713112   88.799286
H    4.545784   17.918556   46.329243
H   70.795517   65.785889   99.708275
H   21.639853   80.465927   14.624187
H   35.933453   94.248451   61.263565
H   49.415527    9.328222   33.179306
H   95.507744   17.159250   51.442467
H   79.987732   31.628340   74.426392
H   31.637043   65.594612   10.588913
H   76.331665   80.700500   30.606012
H   26.579210   28.604868   38.435501
H   74.595558   16.623043   92.239845
H   95.605431   92.154732   93.409019
H   27.549231   10.042453   58.056084
H   43.452488   47.033085   50.966038
H   58.329170   81.953842   81.573425
H   23.428017   15.673442   42.594837
H   87.332657   31.022442   89.115280
H   17.964746    2.150676   69.597450
H   82.919754    5.889758   53.036530
H   61.149376    8.132258   60.851753
H   94.117310   41.490761   67.760658
H   15.073236   11.614870   37.367104
H   13.887394   43.504597   28.072536
H   63.604893   88.938049   79.560089
H   56.525219   24.862734   96.531372
H   40.267551   63.015469   78.273796
H    9.790254   17.066740   81.209511
H   14.564985   71.996468    3.955140
H   27.869057    2.601962   48.996986
H   33.400887   74.927917   21.329613
H   49.749069    3.430080    2.482028
H   72.753517    7.006504   23.134712
H   75.174210   72.811768   78.287231
H   21.891434   99.942192   51.455013
H   28.247883   37.568920   79.375626
H   81.896080   91.255341    5.131964
H   61.986065   13.365871   86.900864
H   46.126919   83.296333   77.616707
H   32.979958   52.732857   80.850929
H   56.434242   34.640259   14.486117
H   83.510765    3.556878   11.680096
H   98.372719   33.255699   51.528675
H   29.993523   66.672638   53.979843
H   72.594521    2.964628   27.326090
H   23.697294   88.997559   83.537270
H    2.099707   81.346588   64.154625
H   29.605406   25.840742   34.834751
H   36.771782   68.511841    2.472905
H   24.927801   23.398827   35.138081
H   99.695671   11.595366   29.377150
H   80.343285   33.946003   54.816513
H   62.924633   46.176804    6.754412
H   80.674751   36.176575   14.122669
H   14.325038   23.738146    7.054484
H   51.273178   93.372917    1.013958
H   98.441544   71.140808   94.042274
H   51.709862   83.871994   87.192436
H   62.174065   12.714130   66.959900
H   53.505257   94.877350   15.903192
H    1.387227   96.728737   92.919296
H   19.829350   12.807820   87.793991
H   39.198315   42.255001   27.781914
H   30.635279   69.352325   68.218460
H   78.963554   52.861996   60.906975
H   43.790047   23.819447   77.361671
H    4.913239   20.136356   57.306854
H   39.710152    8.748062   33.225376
H   99.509964   56.163422    4.289835
H   67.640404    1.276612   82.560371
H   59.079617   70.833954   19.545877
H   87.681099   50.637375   59.082565
H   68.647896   90.001305   37.620754
H   96.282646   41.262394   77.825676
H   82.770752   22.680019   71.782906
H   61.122765   74.116974   15.258190
H   69.801125   89.126022   16.637547
H   91.425484   97.677055   99.681137
H   85.719986   20.951099   53.522610
H   19.740376   95.764832   42.171814
H   54.101471    1.228994   79.114571
H   69.405945   87.354469   70.771019
H   93.862541   54.541729   78.300224
H   54.416107   48.668884   71.476768
H   43.615868   94.222282   86.843750
H   65.964874   53.952339   24.923798
H   42.967209   50.429886   53.473492
H   45.040100   62.466824   88.928085
H   43.508217   15.306253   83.261452
H   54.873394   59.485931   59.205418
H   57.298584   67.316605   14.999176
H   52.063103   95.420219   45.062237
H   34.187706   61.879311   67.046410
H   73.472626   51.849274   94.862717
H   19.343815   92.059273   78.396057
H   65.293404   66.574692   49.003918
H   46.836876   98.532021   38.437630
H   90.576920   20.247173   92.582367
H   18.104633    8.258339   68.291924
H   25.905209   62.065876   66.361580
H   72.704750   44.297565   63.598274
H   62.556194   70.180450   84.426437
H   50.453453   31.686066   16.986801
H   98.193672    0.566269   91.108299
H   60.204144   44.295197   90.137589
H   57.001030   71.815163   75.173470
H   29.049086   21.449799   32.858391
H   78.563316   21.054031   37.103153
H   22.653704   29.286526   57.935783
H   55.985970   32.607201   12.870514
H   17.254711   54.575596   60.607220
H   69.561775   92.552925   55.508022
H   23.903019   45.036911   60.831623
H   98.285225   27.162081   36.124931
H   40.619873    8.120322   86.912445
H   73.442749    9.320437   35.950058
H   35.453712   53.932709   58.410072
H   43.662590   64.133926   81.701492
H   67.408646   67.123024   81.431580
H   57.029602   92.704544   84.655235
H   10.478417   49.335350   23.584158
H   32.233120   62.605103   99.875877
H    4.477462    9.496498   68.844131
H   67.673714   14.172992   65.509125
H   71.554054   57.780449   90.758095
H   75.758102   96.298347   34.511620
H   25.480433   30.484463   80.933228
H   51.361973   89.841202   12.208313
H   58.231850   25.794025   88.594856
H   89.531830   74.888718   77.119675
H    5.750164   38.839584   85.505714
H   42.146362   99.214561    6.134005
H   75.527939   80.355659   36.373779
H   97.640846   62.555813   70.086349
H   55.250816   56.586987   69.619644
H   62.629421   20.768036   77.087715
H   45.111603   93.353729   20.675833
H   10.986283   24.899036   64.907616
H   29.687712   75.903030   39.560726
H   74.256332   40.408787   20.802242
H   76.084976   11.144125   25.319221
H   11.521884   94.012321   13.930036
H   19.900187   91.245064   38.224075
H    7.779389   12.479300   64.152779
H    4.774480   24.490036   93.441925
