200
TIME:    0.250, STEP:   250
H    9.778438   62.441807   15.510571
H   28.053415   33.024155   90.303139
H   17.928093   69.575851   45.840752
H   18.179592   77.090645   44.238197
H   15.103971   83.982697   53.514725
H   89.293274   52.543579   65.253410
H    3.504112   55.297035   49.844921
H    3.112721   89.318207   24.717373
H   87.834587   87.356308   47.475468
H   10.509182   74.758812   95.678017
H   12.542234   94.807808   93.277679
H   30.819153   42.289757   13.218760
H   11.419612   87.339760   60.881828
H    3.931004   53.249126   42.747677
H   19.139063   72.021568   42.953987
H   29.008907   25.554340   54.107285
H   84.677841    8.186848   14.946533
H   36.324715   83.647766   43.342335
H   65.358139   29.339882   42.631042
H   90.088066   79.567345   37.083073
H   58.205086   77.257446   25.382328
H   89.806404   49.196602   70.189331
H   94.705757   62.468750   48.896263
H    8.820043   88.150352   91.554726
H    3.681113   13.106161   45.053524
H   18.652815   62.780041    6.626272
H   99.089394   58.997410   49.483932
H   94.739777   70.541954    0.757584
H   11.489774   56.225777   38.279808
H   92.597534   21.032232   98.279984
H   13.348436   51.867039   16.207039
H   31.744205   63.740707   93.849327
H   26.881676    9.200716   73.301300
H   96.095589   63.588829   38.465088
H   47.508549   89.387802   34.143024
H   32.734604   49.693947   79.591148
H   86.551483   74.213165   86.030006
H   32.420254   45.013988   14.717823
H   52.700150   46.042530   44.653915
H   89.986847   39.647366   63.305756
H   80.507286    4.756669    1.856202
H   13.837053   42.897194   39.534622
H   76.521805   87.552208   50.699604
H   37.258987   63.719604   19.105982
H   29.118670   76.600250   44.724785
H   40.919067   13.578249   42.796635
H   80.162598   25.722260   96.398277
H   89.872368   65.550453   47.288162
H   87.467102   28.372677   61.173542
H   61.759541   17.846632    5.289353
H   77.970352   70.369545   27.472424
H   20.755846   35.870098   63.756676
H   52.446426   94.136055    8.059052
H   22.257763   82.394730   81.851250
H   76.775620   76.162537   90.449944
H    5.177462   72.103706   78.975677
H    5.401945   16.783302   49.547321
H   67.517929   58.811863    5.122952
H   27.970152   74.670639    7.368347
H   42.872005   95.933022   66.809372
H   50.387131   15.181303   41.944336
H   90.116364   16.448572   49.142818
H   71.722809   25.413626   84.547546
H   24.368328   65.166603    3.890774
H   71.509125   76.228149   18.338518
H   38.347435   16.949633   33.043045
H   85.801613   22.951054   86.041725
H   97.285423   91.472664   87.469536
H   16.878187    5.988383   61.853233
H   45.179401   41.804279   50.982059
H   58.460777   76.765091   73.548828
H   31.859451   23.558981   44.694828
H   77.811172   25.835979   99.160904
H    8.191148    8.744889   60.863728
H   79.266800    1.033457   67.142517
H   53.566521   18.723553   62.812126
H   95.385315   30.322474   72.004128
H   26.184853    6.152033   47.625587
H   11.606586   30.138964   34.716976
H   68.125412   90.611176   93.787384
H   43.792522   29.933039    0.985188
H   27.076160   68.410423   87.548088
H   10.960698   13.775992   89.987129
H   24.347967   62.186592   94.177460
H   38.552116   99.429596   57.498802
H   24.948948   85.424438   27.574654
H   36.303406    2.804947    1.794249
H   75.248329   18.172163   11.819367
H   65.993790   72.075539   77.202721
H   23.394043   86.495384   54.755489
H   40.823624   34.979122   80.710007
H   83.985771   88.623199   98.586044
H   47.734737   16.749317   95.445023
H   59.579449   94.074379   69.379250
H   25.378292   56.790932   68.356270
H   68.857948   27.932877   28.591501
H   79.441246   13.933294   98.759903
H    6.619787   28.594101   48.688251
H   36.791313   69.677856   52.916687
H   67.378304   98.089890   27.252848
H   10.312406   80.702881   69.410683
H   90.944160   76.807861   65.809441
H   23.386686   36.804504   30.642593
H   22.356421   67.957947   90.559479
H   25.325483   27.341316   25.411747
H   87.818993   26.283285   43.422592
H   66.132011   30.220949   56.212692
H   64.692299   34.658325   18.354929
H   73.050697   39.963425   99.616142
H    4.687969   27.920961    5.586207
H   47.326111   95.979881    0.802886
H   86.395493   63.596802   90.625069
H   56.920357   80.390701   93.717857
H   63.190300   19.181759   74.696106
H   63.516548   82.384979   26.422031
H   13.630387    5.504763   79.385513
H   32.163792    8.583520   84.296677
H   40.720379   27.488689   33.778618
H   19.242113   58.089054   83.045425
H   71.046532   46.874447   49.715797
H   40.658943   21.825886   87.192146
H   17.857616   27.243137   48.482315
H   32.477486   21.400814   24.325800
H    3.929977   66.958946   17.427296
H   76.617149    8.704503   92.482399
H   48.088711   62.626057   25.338305
H   95.138069   49.236618   70.668564
H   75.209938   87.648399   35.087032
H   92.590782   52.121693   84.662376
H   68.229889   24.101948   66.671974
H   49.012627   84.828644    3.793500
H   81.316170   86.150558    9.562810
H   92.405098   83.081261   97.449539
H    0.430229   13.259352   49.830193
H    4.920092    1.189307   55.957367
H   62.091736    1.614016   83.534279
H   68.909271   86.590004   55.836479
H   91.303642   63.908718   83.040367
H   46.574615   44.473480   71.547722
H   43.453362    8.610318   95.179626
H   51.112728   62.774590   15.232963
H   56.777939   41.314667   46.480007
H   54.684036   56.945049   99.046951
H   57.254860   26.165699   78.290138
H   40.771984   69.435425   49.395542
H   46.306534   62.148041   29.367233
H   44.967766   96.734001   47.210293
H   42.379387   73.046455   68.767601
H   65.452606   64.374802   97.845047
H    9.780746   88.783974   89.622711
H   75.867744   61.479778   51.268703
H   34.208321    6.833007   47.838951
H   76.640305   31.464672    3.113533
H   10.174240    1.372277   75.705406
H   14.009075   54.143131   60.934143
H   63.798958   43.553699   54.368614
H   59.415936   61.183460   80.874191
H   46.188240   36.499451    9.958412
H   11.924126    1.696652    2.234086
H   63.567562   56.535797   78.624832
H   54.054176   84.003120   83.150002
H   43.134594   23.004478   35.457344
H   65.649803   34.133965   37.227894
H   11.641739   20.473431   70.770935
H   58.858437   22.427679    9.922802
H   12.085986   64.121101   62.247158
H   74.727638   97.405220   52.327709
H   23.640949   31.387543   48.426228
H   94.208839   28.137690   36.833321
H   26.929306   10.384250   90.290741
H   79.173950    5.752742   35.975235
H   45.817482   65.075714   57.488823
H   37.866158   77.024551   90.142654
H   71.101341   74.304565   74.475601
H   70.973083   94.961319   98.761223
H    1.216120   47.714867   23.296339
H   35.315014   53.233536   87.326286
H    1.818629    9.210396   65.008072
H   75.345833   21.147097   69.017883
H   85.824837   54.562370   86.526070
H   81.235245   85.547768   41.486794
H   19.429369   30.118252   69.981232
H   65.174789   90.155380    6.267951
H   51.698662   25.238859   77.558174
H   85.652283   87.900650   78.355637
H   99.469780   36.308151   84.004250
H   31.700212    4.353273   99.486710
H   89.940628   67.648140   25.876450
H    6.328785   61.217999   66.657700
H   49.795418   58.218914   65.829361
H   48.297985   30.693497   79.230049
H   47.570938   85.200958   24.497015
H    4.322596   17.761929   58.035286
H   34.928852   63.930214   33.514812
H   84.551437   53.808674   21.783573
H   75.352554   10.407984   29.429367
H    9.527751   85.832085    3.804302
H   28.618868   97.207436   46.684692
H   11.779958   11.639875   77.569832
H    7.903438   34.653957   97.609863
