100
TIME:    8.360, STEP:  8360
H   51.969231   55.369225   91.492203
H   69.593704   57.881634    5.229320
H   23.471651   75.355972   25.206253
H   82.879807   88.217766   81.923042
H   20.286303   42.848118   39.030548
H   98.375000   92.151085    6.664466
H   14.822984   25.844957   44.216053
H   62.806778   11.848727   40.606628
H   48.123116   82.512695   73.855850
H   46.418678   36.422215   35.048531
H   22.628189    2.625483   34.472221
H   36.763794   42.734081   97.855629
H   10.660278   55.965721   94.313492
H   41.143608   79.308022   93.439171
H   82.146553   23.276413   48.867668
H   65.385773   80.532738   39.088165
H   51.845589   34.919636   34.432137
H   79.837509   88.041496    9.728140
H   75.473450   29.065487    3.800328
H   67.280441   28.280272   85.520302
H   68.182472   23.952740   30.339819
H   63.861683   55.182007    7.347023
H   74.124153   26.633402   93.160141
H   42.293472   36.838104   86.187759
H   30.582008   23.170250   98.280434
H    8.189301   79.650681    4.168568
H   41.186867   94.961014   65.846603
H   27.149469   46.656239   43.110069
H   92.950676    7.576836   61.990257
H   21.552544   83.929245   47.984344
H   45.074741   71.712379   47.962486
H   93.612907   21.534710   25.336967
H   59.225086   56.824837   50.931778
H   31.332596    7.578609   19.557676
H   72.898354   26.700676   33.681561
H   99.358597   40.221375   93.143806
H   81.631493   98.372810   67.200645
H   18.458519    5.958303   12.383941
H   92.192986   99.268639   34.165855
H   75.774338   29.547861   95.781738
H   63.904709   43.033348   39.302456
H   95.678528   74.386902    6.753999
H   83.233368   13.636963    5.325609
H   45.529194   52.966949   98.132111
H   31.488029    2.051821   71.498955
H   70.211571   22.366928   17.124716
H    7.051471   79.483101    5.713885
H   56.697872   81.475281   85.846992
H    9.403320   40.074600   10.989449
H    1.260149   57.977985   99.000725
H   42.927555   62.539497   41.554565
H   11.424479   87.992981   25.254765
H   82.280190   70.482849   17.336355
H   83.093079   70.806442    0.720905
H   75.159126   91.235138   71.451263
H    4.008129    3.739815    8.032669
H   26.239853   48.322273   51.093056
H    3.553309   87.388161   98.219627
H   49.610836   92.007927   69.689758
H    7.345925   70.366409   25.832298
H   87.055527   89.792847   62.583431
H    2.205184   50.128372   17.090637
H   41.621143   36.812042   60.200165
H   17.105606   87.303497    0.162936
H   64.148056   93.144440   74.099228
H   87.781013   26.672844   40.492802
H   16.830027   37.389233   70.682846
H    2.883266   95.654106   65.858948
H   73.564392   49.090050   35.908325
H   99.811989   68.543961   84.112183
H   56.563297   26.586273   61.869637
H   84.841522   74.015038   68.829636
H   61.903580    4.792384   47.400753
H   46.170910   20.315842    6.431243
H   65.180725   40.624866   35.162373
H   23.291910   43.370705   33.407715
H   26.049385    2.220393   39.007889
H   24.745829    4.084347   76.135193
H   62.403702   28.962765   10.953859
H   89.543480   53.610832    0.699838
H   74.476082   15.770394   79.648712
H   68.622971   98.686356   87.606392
H   46.663429   46.926914   26.107128
H   25.304386   27.542746   99.861198
H   45.268082   25.952724   37.344688
H   58.889095   16.129791   22.327148
H   25.500353   95.512047   22.180367
H   90.480827   36.098473    8.897812
H   29.179417   28.700415   59.816780
H   27.202230   65.325211   23.067354
H   66.148338   24.847103   10.010032
H   96.854240   24.231136   92.819847
H   21.345463   78.359489   65.496216
H   55.226692   20.364368   90.500786
H   12.051178    0.890919    8.190874
H   84.423294   65.604675   35.644203
H   99.025230   47.441887   56.397514
H   22.140581    0.113478   11.053522
H   10.461884   72.902702   44.800289
H   58.481739   64.099411   92.394485
