100
TIME:    8.479, STEP:  8479
H   43.921623   44.456291   91.383255
H   66.307114   64.330383   12.732684
H   25.517145   83.917450   23.809452
H   82.899780   83.315117   75.400703
H   19.219976   52.386494   35.803879
H   96.530151   92.022163   18.449436
H    8.586406   33.880760   53.522007
H   53.453613   22.143473   29.680077
H   45.197868   71.071365   66.365692
H   43.168404   38.130878   39.707863
H   11.559097    7.413607   23.009653
H   32.221581   48.698971   89.384941
H    3.071907   48.763367   82.487213
H   35.251350   78.941231    2.494780
H   83.591927   12.646744   43.145187
H   60.601151   70.124596   29.210106
H   42.276344   42.790203   45.265175
H   82.381439   82.250923    5.603266
H   77.327377   34.058018   10.069438
H   64.073746   25.753138   93.622383
H   61.120842   12.105579   27.109972
H   75.270332   55.339981   97.213135
H   72.535332   25.666037   89.755524
H   31.236216   38.261688   77.350281
H   26.326237   13.732651   99.159279
H    7.627993   76.142563   92.970352
H   30.924944   90.014786   68.207138
H   17.108572   52.210758   47.043991
H   95.538185   18.373281   56.364922
H   26.115185   80.984024   57.444641
H   49.758587   82.383812   38.547585
H    1.126651   18.247211   14.320534
H   67.607315   48.118095   61.652237
H   36.360596   96.673035   14.544718
H   69.936790   17.690697   40.922047
H    9.702765   49.542763   92.769753
H   93.045586   94.014900   76.577415
H   13.540096    3.780478   20.781090
H   87.170494   96.675682   22.634106
H   64.565430   18.407499    5.144230
H   55.771759   47.116165   42.106045
H   85.649887   74.853561   12.829175
H   84.257477   14.350798   13.920906
H   37.930996   54.965233    9.766994
H   21.165684   97.357613   81.681938
H   68.675407   24.636219   17.608171
H    7.981953   85.954597    6.856591
H   56.705135   82.700943   93.210045
H   12.881477   30.219368    6.242277
H    3.758003   59.789242   90.680748
H   42.919384   51.050957   42.809280
H   17.208063   76.951126   17.442757
H   84.747856   71.172852   10.424982
H   80.336700   68.865356    5.971739
H   65.684303    1.663357   72.462662
H    4.156343    3.614638    3.981628
H   33.783577   44.888603   62.410912
H   94.692322   76.150200   95.154564
H   58.996685   97.035866   60.554146
H   99.493248   79.512573   22.447655
H   94.562027   84.258301   53.305622
H   97.981621   49.020737   11.706167
H   49.700527   28.691618   52.039978
H   25.277142   87.951736   96.932587
H   68.870941   83.640564   85.181030
H   80.470619   20.756981   47.529011
H    7.282126   41.502918   76.428024
H   94.663086    2.459851   71.547836
H   79.494781   40.539467   28.444496
H    2.228865   74.521561   83.859787
H   52.783718   18.489185   60.442421
H   75.041672   70.063866   77.552719
H   54.144684   98.906029   44.349308
H   43.551624   12.784374   99.360847
H   70.913193   40.800091   44.185062
H   26.105486   50.997955   25.400587
H   36.857254   91.921021   41.118752
H   30.336210   96.303658   82.708374
H   68.110497   28.613224   12.281887
H   83.707512   47.128441   90.447868
H   76.805748   17.001505   86.761185
H   77.553055   99.458069   77.650383
H   54.190811   48.917027   37.440418
H   33.491272   37.725929   88.991844
H   39.473877   18.508869   25.809181
H   56.149967   20.500866   30.590836
H   33.448093   86.859779   27.854729
H   92.394676   26.575790    7.663948
H   31.649353   22.075029   58.843513
H   16.681055   60.429161   27.321310
H   71.018303   31.272297   12.523093
H    5.659037   33.180801   95.087776
H   28.973621   81.929344   74.698669
H   66.727249   27.583973   98.524788
H    9.993427   90.232132   10.925236
H   94.252197   60.905396   29.497734
H   89.579460   54.271095   49.553780
H   21.910883    6.001565    8.664389
H    4.793132   73.416573   34.832478
H   65.873169   61.046124   80.931366
