200
TIME:    0.784, STEP:   784
H   26.187056   60.669575   24.641640
H   32.812805   40.819939   11.981776
H    6.735924   92.948944   72.143120
H   36.179733   83.332161   30.274231
H    9.434356   97.516846   45.837090
H   71.921326   38.049980   49.447792
H   11.240813   54.918144   60.180904
H   15.079362   12.376525    5.762883
H    9.520464   79.350708   34.448544
H   91.711380   67.278526   74.614937
H   31.154840    6.214966   10.152580
H   33.027313   56.542984   38.662834
H   24.525982    5.062590   38.995781
H   78.691658   55.502102   68.479668
H   93.357681   76.132332   41.640091
H   13.443905    3.552184   42.587776
H    9.797944   33.196659   89.019569
H   23.644760    9.319200   33.835430
H   83.125275   10.007433   50.492012
H   91.786964   72.233971   16.382587
H   64.613640    3.914145    0.917676
H   77.918190   69.607826   49.611069
H   78.714928   58.586136   36.083229
H   20.130753   93.018898   89.880272
H   26.891464   34.582832   25.998974
H   18.210775   86.478958   88.989510
H    9.430682   69.712288   70.954422
H    6.995270   92.570595    2.162689
H   33.980824   39.994576   35.152939
H   68.466660   35.337643   79.808029
H   12.651257   74.176796   16.859913
H   22.033596   76.256332    6.996805
H   13.979012   20.690989   79.823929
H   78.422157   64.171425   47.798843
H   21.882078   67.322495   30.080667
H   15.291338   37.518509   85.714516
H    1.878164   62.687546   90.038918
H    6.006677   58.827213   90.708527
H   32.936707   26.921028   56.523796
H   84.865707   37.451427   42.446381
H   80.666176   79.811142   19.580879
H   40.416458   31.699511   23.700111
H   66.906937   75.285103   70.528236
H   36.069351   89.655281   38.203999
H   47.364349   92.892563   63.995262
H   33.404396   99.680977   48.604259
H   90.225616   99.560181    8.105987
H   76.871925   65.542305   28.091019
H    8.118796    8.108318   61.558544
H   42.649990   20.256460   82.698181
H   65.267319   63.610619    6.309741
H    0.342971   45.061260   75.237526
H   66.849571   78.865135   15.037153
H   14.310110   93.663681   89.759071
H   54.172531   64.286545   73.179848
H   98.332207   58.947662   96.461700
H    3.877989   18.804054   43.819141
H   73.352036   71.225632   95.484306
H   16.702219   84.986252   20.283573
H   30.521381   92.934486   56.937836
H   48.657677    4.762819   26.342213
H   99.713860   17.713579   53.236671
H   86.434372   36.475403   66.531891
H   37.307060   65.928459   15.813530
H   80.093246   84.188934   40.175037
H   17.399755   37.695671   42.641617
H   65.854836   11.686999   97.074379
H   94.295036   92.686745   98.041817
H   35.872437   13.204627   55.094307
H   42.105495   51.111553   50.953541
H   58.226517   86.001068   87.832611
H   16.851498    9.522935   40.956844
H   94.759415   35.067883   81.279694
H   25.588331   97.007256   76.410072
H   85.769058    9.677672   42.033859
H   67.064003   99.871010   59.322662
H   93.128265   50.202026   64.450752
H    6.406359   15.875883   29.365486
H   15.667894   53.928001   22.884649
H   60.078075   87.633011   68.462799
H   66.456718   20.907896   93.057220
H   50.557003   58.806675   71.039848
H    8.877307   19.633524   74.362968
H    6.934275   79.648170   11.581567
H   19.536270    5.076438   42.365570
H   39.993027   66.740631   16.458481
H   60.236687    3.917685    3.018504
H   70.807564   98.297394   31.960682
H   82.336746   73.381271   79.129883
H   20.719398   10.431364   48.880642
H   18.439117   39.588963   78.334808
H   80.266121   93.308411   10.237797
H   73.102829   10.726784   80.236420
H   35.633945   74.889458   84.041924
H   38.908867   49.567558   90.596764
H   46.743752   39.872017    3.484045
H   86.684990   95.462791   21.757896
H   91.940163   36.891418   53.744205
H   24.691246   64.328568   54.809105
H   76.663170    6.766713   27.383219
H   34.137600   95.467407   94.556007
H   10.800485   84.886795   62.863869
H   34.456009   17.288813   38.104488
H   48.015465   68.943878   11.765735
H   24.617609   20.323685   42.724621
H    8.960001    0.138784   18.421343
H   91.428246   36.851547   53.727493
H   61.545506   55.161217   97.706184
H   86.621513   33.222832   25.437763
H   21.841951   20.475550    8.199739
H   54.351891   91.339485    1.178595
H    7.836929   77.025085   96.707695
H   47.645676   86.587402   82.102608
H   61.381401    7.669388   60.926117
H   45.696449    4.621273    7.698276
H   91.837746   89.883980    3.475743
H   10.208350   16.102781   90.521896
H   38.011105   53.772724   23.104485
H   39.521568   78.137680   56.653996
H   85.138832   57.532284   69.636673
H   46.232307   25.374424   69.693901
H   94.817108   14.593067   64.189972
H   45.351631   98.878860   40.167431
H   96.062592   47.743156   94.042473
H   60.638542   95.483269   74.821190
H   67.652519   77.235962   15.027736
H   81.864662   51.729965   50.045486
H   63.529503   91.836571   39.597057
H   99.162300   32.792141   72.493050
H   94.112625   21.570915   75.769432
H   70.568672   65.761871   24.200649
H   60.819389   91.446884   22.155842
H   90.661385    9.061419    1.422254
H   74.246002   26.950527   56.402264
H   31.300053   91.533722   31.419083
H   47.869064    0.928677   75.667198
H   69.793350   87.950752   82.419960
H   95.858482   47.235477   74.602913
H   60.532471   51.941299   71.421425
H   43.742622   83.000023   80.341766
H   77.549545   47.070984   32.482666
H   32.194839   57.539757   58.928410
H   37.517830   66.773232   81.035370
H   32.785835    6.835777   87.139076
H   65.872498   51.725327   66.857117
H   65.872581   71.347763    3.792049
H   57.597466   94.395470   43.386753
H   27.798195   53.168938   65.703880
H   79.728241   42.079338   92.536499
H   26.803154   94.614006   69.639267
H   57.046173   70.548721   47.237385
H   56.687149   92.056816   31.104599
H    1.447501   11.497524   84.368301
H   24.290176   13.629572   62.509174
H   35.184193   68.246231   70.594475
H   79.651268   44.877781   70.798248
H   65.005600   77.198380   87.197189
H   53.780319   27.931625   22.468945
H   87.483788   99.684494   82.430061
H   57.580677   34.747528   99.117538
H   59.299576   62.308556   68.951775
H   18.062037   20.237148   30.831207
H   88.635857   10.851612   37.005856
H   31.243124   36.160740   47.924835
H   53.745445   40.547226   15.169729
H   21.286316   47.130093   59.328068
H   65.532402   88.768135   57.988667
H   24.107433   55.683418   70.507828
H    1.465107   26.401106   35.572388
H   51.298515    6.354459   84.277374
H   68.972412   12.103240   35.930420
H   27.369715   45.241081   59.128647
H   48.183807   54.078358   75.117386
H   64.527206   61.526573   86.860611
H   46.153687   90.944260   73.652565
H   17.701530   50.601204   23.813873
H   29.829243   69.915649    9.663696
H    6.551398    9.719658   71.836258
H   61.689114    8.733026   62.772694
H   60.423134   60.290550   94.059074
H   71.485931    4.684085   29.071224
H   30.200262   30.770107   89.475784
H   40.586926   89.593048   16.844681
H   63.327927   26.226955   97.203468
H   92.557877   64.739410   76.155624
H   10.648796   40.814102   86.676857
H   50.294373   95.206612   11.318899
H   64.286041   90.267525   44.561958
H   90.863930   63.599308   72.760696
H   59.506027   55.314083   72.576065
H   73.807159   13.026176   75.416695
H   43.193321   99.712891   17.695311
H   16.183907   30.465981   70.268806
H   25.599871   85.241821   44.276539
H   66.226151   29.956963   20.036804
H   76.656265   11.718315   22.113308
H   13.077308    0.392944   21.828108
H   13.099520   86.594414   31.624794
H    4.658946   13.134050   53.687477
H    2.333855   16.562061   90.190933
