100
TIME:    5.911, STEP:  5911
H   17.585691   79.953392   93.734329
H   37.226967   25.171926   50.813686
H   81.367020   99.165543   53.959316
H   82.468750   89.116425   16.160465
H   42.226761   46.550140    5.434422
H   36.357624   94.804268   64.133415
H   43.174381   60.477955   52.700977
H   55.293350   99.979324   65.466469
H    8.324272   17.974976   28.010138
H   13.310629    1.256672   39.157291
H   50.428207    4.084584   70.371315
H   30.234558   19.978260   72.177711
H   66.873734    4.140079   37.674980
H   62.403404   86.856514    7.068989
H   52.397881   42.032883   66.637695
H   63.855392   94.731239   42.376678
H   48.779701   72.936607   11.489996
H   27.470823    7.209454   94.620155
H   37.332996   26.326769   74.775620
H   33.264282   80.285439   18.780939
H   13.509590   67.759399   96.809639
H   29.073669   51.930923   15.901993
H    6.822435   46.548439   63.229797
H   69.841652    7.540987   68.072083
H   18.173138   17.387543   80.193947
H   19.600649   51.916451   34.573906
H   52.367332   96.762955   17.249228
H   33.788998   32.345192   62.161697
H   39.700172   85.384338   77.756287
H   27.646648   44.542625   53.295944
H   48.691330   52.105816   41.719429
H   38.981297   89.197830   52.053169
H   86.720085   36.004967   30.306517
H   27.855972   32.014763   22.729822
H   33.840729   12.093103   84.666916
H   86.470963   48.403831    0.842190
H   46.740547   88.061157   74.229042
H   19.680851   50.781101   39.564037
H   95.566010   52.625664   71.492546
H    6.443670   58.816051    3.099176
H   31.276134   59.001472   81.606300
H    2.067013   64.783127   81.725975
H   62.155743   98.946457   28.432148
H    1.907372   11.858847   58.681404
H   43.920063   98.675552   61.930645
H    1.824913   75.660110    7.175280
H   87.914352   46.298660   82.205330
H   56.555096   56.251358   34.317081
H   37.813789   42.900383    8.680997
H   49.849293   20.700552   70.240036
H   43.095715   98.974197   15.738582
H   92.396599   15.242485   86.015633
H   31.484066   56.282715   59.568623
H   39.805756   10.757449   92.653221
H   70.152275   76.617218   50.624859
H    0.957899    6.315925   91.402405
H   70.982521   18.987617   18.172874
H   85.910553   18.666628   61.301743
H   56.463821   88.522957   57.693977
H   68.952637   82.127350   95.487694
H   32.571552    3.683886   53.526989
H   89.124977   72.923325   27.899872
H   75.359016    3.926670   28.135437
H   48.937950   73.962845   66.659073
H   66.942459   88.742447   46.034977
H   38.223778   48.419701   95.687782
H   13.317776   52.719471   52.445633
H   72.052513   55.593906   48.782581
H   51.506763   25.059563   89.504730
H   50.139946   45.448776   89.286255
H   34.332588   93.216248   91.241493
H   86.578079   55.350418   89.397629
H   21.583206   25.924217   10.188324
H    0.087841   75.311058   51.941704
H   47.163548   37.067905   49.492203
H   65.401207   86.412651   98.194733
H    3.635026   14.219492   95.587029
H    9.689860   64.216042   40.882660
H   44.966076   36.156254   83.631630
H    9.644226   87.019173   11.683183
H   26.541216   90.433670   33.275105
H   84.848907   82.804489   92.485497
H   91.758278    5.971767   92.876953
H   56.816109   17.976082   23.538784
H   64.512550   79.149010   74.747269
H   15.247631   26.174221   52.261032
H   61.937050   73.574928    5.402771
H   51.094139   32.069096   34.289894
H   78.352890   65.057167   79.846443
H   43.727070   66.083298   35.521507
H   65.925133   92.608871   58.291302
H   15.653040   40.042664   46.153397
H   64.359970    4.877447   76.111282
H   18.543137   71.786690   25.368578
H   54.394402   20.257954   51.914188
H   82.145935   62.312592   62.138092
H   93.415276    6.900887   97.242020
H   26.867731   78.934082   60.216125
H   27.126495   62.330296   49.929588
H    6.366955   26.949394   28.315136
