200
TIME:    0.495, STEP:   495
H   17.306841   61.628704   19.699919
H   30.237110   36.600872    0.249169
H   12.793076   80.299461   57.908318
H   26.438192   79.954262   37.831509
H   12.502743   90.192184   49.992214
H   81.322998   45.893894   58.001682
H    7.053718   55.123199   54.587086
H    8.603034   99.897888   16.020912
H   97.784348   83.683327   41.498695
H    1.884754   71.326958   86.014244
H   21.081778    0.041571    1.019909
H   31.832260   48.829159   24.892448
H   17.432835   95.470787   50.840477
H   92.350983   54.282795   54.553555
H    7.310452   73.907593   42.351170
H   21.867622   15.459717   48.822117
H   96.203339   19.661409    3.051401
H   30.506945   95.425606   38.980553
H   73.509727   20.470053   46.237667
H   90.867523   76.202782   27.585659
H   61.145340   89.487633   14.157811
H   84.352074   58.561302   60.747993
H   87.369141   60.687401   43.017624
H   14.009414   90.384048   90.786484
H   14.330141   22.959726   36.311268
H   18.450006   73.653084   98.534500
H    3.833932   63.913410   59.334625
H    0.362366   80.648727    1.402249
H   21.808701   48.778877   36.845196
H   81.526253   27.595467   89.805023
H   13.028569   62.102787   16.506578
H   27.288963   69.482895   99.881241
H   20.961914   14.472566   76.293892
H   87.986992   63.856125   42.747429
H   35.751270   79.264206   32.279430
H   24.731617   44.107838   82.400558
H   93.583420   68.925194   87.869301
H   20.301737   51.351517    3.702149
H   43.632652   37.269432   50.099834
H   87.637260   38.639866   53.735443
H   80.580185   93.311714    9.988310
H   26.031725   37.759693   32.269970
H   72.110489   81.924042   59.797009
H   36.713181   75.618919   27.868332
H   37.489727   84.075188   53.566109
H   37.471325    7.202168   45.461182
H   84.779526   13.719136    1.770086
H   83.907745   65.546715   38.480484
H   96.942085   19.075268   61.350182
H   52.992050   18.952265   94.924324
H   72.142181   67.268539   17.762856
H   11.390326   40.087017   69.024132
H   59.053761   87.126877   11.262649
H   18.611418   87.564941   85.479370
H   66.405289   70.713814   82.526398
H    2.036736   66.068054   86.998291
H    4.702747   17.710426   46.919224
H   70.194626   64.507317    0.700998
H   22.800407   79.403458   13.293949
H   37.205521   94.557289   62.280296
H   49.593655   10.401287   34.786228
H   94.519127   17.028959   51.020752
H   78.472496   30.488976   76.281937
H   30.304445   65.516144    9.360905
H   75.447533   79.880569   28.356972
H   28.736774   26.468075   37.446884
H   76.650002   17.783178   91.103523
H   95.913429   92.029686   92.320114
H   25.592873    9.299207   58.752228
H   43.769089   46.074471   50.968975
H   58.353298   81.002571   80.102249
H   24.973780   17.119114   42.979836
H   85.587051   30.071590   90.956978
H   16.172878    3.359618   67.996193
H   82.250046    4.999436   55.622627
H   59.759186   10.073982   61.211155
H   94.349777   39.443241   68.538628
H   17.110346   10.613350   39.247826
H   13.469246   41.054245   29.290684
H   64.433739   89.244789   82.168427
H   54.190891   25.792290   97.347946
H   37.849091   64.004715   79.974083
H   10.004835   16.463436   82.818741
H   16.358532   70.197990    2.162603
H   29.827618    2.020360   50.555653
H   31.851442   76.852280   22.474537
H   47.284031    3.315473    2.355933
H   73.210899    9.053552   21.060232
H   73.490707   72.677910   78.089172
H   22.166912   97.476944   52.060101
H   30.553362   37.094124   79.620262
H   82.279190   90.772781    3.931886
H   59.373322   13.986170   88.467293
H   48.593216   85.272308   76.106506
H   31.586378   53.476837   78.560242
H   58.711922   33.410572   17.072079
H   82.764687    5.459233    9.311412
H   99.884598   32.401150   51.007931
H   31.239784   67.223595   53.784931
H   71.638214    2.070975   27.312662
H   21.243376   87.476868   80.947395
H    0.054647   80.514488   64.458008
H   28.465307   27.850811   34.066223
H   34.129036   68.410294    0.288688
H   25.000710   24.121616   33.354919
H   97.518280   14.288151   31.952232
H   77.737885   33.263077   55.072479
H   63.248787   44.065083    8.881171
H   79.277008   36.870831   11.463139
H   12.558242   24.504995    6.785300
H   50.549549   93.850861    0.975262
H   96.233101   69.757751   93.415787
H   52.665119   83.233757   88.388763
H   62.360374   13.899862   68.378204
H   55.340660   92.587082   17.831648
H    3.631796   98.337547   90.438103
H   22.090664   12.033365   87.152817
H   39.477360   39.547844   28.881310
H   28.546532   67.287392   70.936737
H   77.512100   51.764278   58.855259
H   43.216011   23.453960   79.163925
H    7.286355   21.439266   55.689022
H   38.384163   11.067756   31.593723
H    0.320268   58.142544    6.698357
H   69.286140    2.638386   84.379410
H   57.064617   69.329208   20.607822
H   89.048210   50.380569   61.206665
H   69.850937   89.569939   37.156239
H   95.605804   43.253265   79.079071
H   80.104927   22.940706   70.845901
H   58.902573   76.080780   13.156330
H   71.912216   88.580521   15.340512
H   91.605080   95.001160   99.272011
H   88.416862   19.540977   52.845768
H   17.023357   96.759323   44.699165
H   55.566353    1.299582   79.924850
H   69.314888   87.214317   68.033020
H   93.393410   56.259010   79.169250
H   52.978500   47.899727   71.489777
H   43.586075   96.859993   88.371994
H   63.241978   55.569752   23.147141
H   45.499176   48.758762   52.191353
H   46.808155   61.454498   90.783211
H   46.028435   17.297144   82.350044
H   52.288136   61.310005   57.406940
H   55.283375   66.369110   17.633320
H   50.762291   95.661079   45.456047
H   35.689514   63.926620   67.361961
H   72.002289   54.145626   95.409477
H   17.590551   91.458801   80.454277
H   67.232033   65.640625   49.419128
H   44.521641    0.053963   40.161205
H   88.021873   22.303715   94.513023
H   16.650766    6.995891   69.651062
H   23.724251   60.613373   65.366669
H   71.072021   44.161190   61.906170
H   61.980480   68.530937   83.775192
H   49.671497   32.568520   15.698263
H    0.710946    0.773504   93.148056
H   60.820770   46.539307   88.026917
H   56.460773   74.049622   76.635834
H   31.631512   21.734823   33.334866
H   76.195839   23.452036   37.126022
H   20.634823   27.670792   60.288784
H   56.512589   30.740953   12.330100
H   16.307112   56.325607   60.907875
H   70.508850   93.442513   54.924965
H   23.854973   42.534527   58.557301
H   97.537888   27.340942   36.254803
H   38.109936    8.535376   87.531799
H   74.493469    8.666360   35.954674
H   37.353737   55.975613   58.241177
H   42.599911   66.497208   83.249039
H   68.085907   68.438522   80.155525
H   59.585907   93.118286   87.241333
H    8.780334   49.038261   23.531391
H   32.798134   60.886982   97.575119
H    3.989999    9.444046   68.140854
H   69.080269   15.451616   66.152397
H   74.170364   57.190468   89.982224
H   76.762245   94.327408   35.790401
H   24.371071   30.417324   78.925362
H   53.894569   89.899529   11.118568
H   57.034054   25.692268   86.571465
H   88.820580   77.274239   77.346268
H    4.598762   38.375488   85.230446
H   40.231232    0.156616    4.915333
H   78.170265   78.025948   34.449207
H   99.233711   62.310547   69.457764
H   54.250660   56.886173   68.924759
H   60.001991   22.587704   77.480476
H   45.562481   91.859055   21.376383
H    9.764622   23.590567   63.647564
H   30.648529   73.708015   38.452309
H   76.143768   42.865433   20.982153
H   75.950699   11.009166   26.072748
H   11.156293   92.512611   12.073651
H   21.498611   92.338165   39.775188
H    8.512827   12.325405   66.612572
H    5.348122   26.353449   94.206047
