100
TIME:    0.768, STEP:   768
H   65.385658   51.591774   98.442886
H   79.906898   46.385426   26.445372
H   92.959747   29.156597   14.322289
H   81.605515    1.007498   98.065910
H   88.292145   34.316109   44.881126
H   16.107155    0.377782   54.803791
H   12.720133   13.195948   50.511372
H   59.523010   55.042889   37.679031
H   34.749092   12.453405   51.744980
H   53.852333   27.411919   37.764626
H   28.817535   97.144852   65.770897
H   26.527691   62.186562   38.261497
H   94.410248   15.242514   48.795593
H   17.054768    2.709347   15.684727
H   89.842995    1.423837   13.854820
H   70.644470   44.562641   69.289536
H   62.320488   32.786057   43.279427
H   17.555893   57.352844   72.921188
H   57.223282   10.570590    3.825108
H   71.860329   89.429932   68.582542
H   18.702332   79.760773   36.399094
H   35.988758   45.113609   53.862499
H   75.490120   88.376122   10.376108
H   47.686020   45.892704   50.037094
H    2.116539   25.266331   42.229111
H   43.137501    4.726275   17.188810
H   95.853027   10.551557   15.206259
H   67.738457   92.286835   92.159317
H   27.870621   18.771006   20.868362
H   30.441175   71.831833   44.442074
H   46.312687   90.913277   48.638664
H   14.249022   31.293114   28.166451
H   24.454330   12.291899   66.984459
H   10.551841    3.340165   39.396019
H   61.681984    0.865111   71.493408
H   39.329987   44.815746   18.001753
H   53.459660   76.410011   68.980721
H   32.247818   44.897610   76.636482
H   16.193439   64.113457   68.518478
H   90.856453   40.285702   98.458366
H   82.757095   82.532875   60.437122
H   62.597710   46.326927   38.881977
H   17.856070   68.105408   56.945671
H   30.316858   25.642035   55.823738
H   90.037163    1.590859   21.827456
H   68.142845   77.641655   86.330009
H   44.189442   67.171555   34.185738
H   56.280430    3.290694   16.097380
H   87.479973   68.842575   13.837678
H   41.997204   42.438847   29.949898
H   43.486027   95.497734   61.514545
H   42.455711   92.474182   23.643883
H   24.810457   26.461853   58.266922
H   58.904873   94.672523   65.706253
H   79.619644   25.831465    6.923082
H   94.527176   11.724813   66.482269
H   44.938911   67.386635   29.030739
H   68.871765    4.359130   93.772781
H   50.846680   71.218323   52.524326
H    8.339393   86.818665   41.765831
H    8.146387   42.855019   54.515488
H   71.653320   20.796921   60.607124
H   26.325539   54.781868   80.870216
H   95.776131   45.972214    6.287542
H   62.807503   99.504692   67.084450
H   54.165840    4.093570   91.596016
H   25.950846   74.912994    4.140769
H   27.314919   61.459946    2.917442
H   95.178307   94.602753   12.064005
H   45.943626   86.771629    0.115777
H   97.643929   43.147923   52.936466
H   10.642342   26.037239   12.850546
H   56.916916   80.317635   42.056385
H   13.286902    0.778444   57.564079
H   99.201096   29.736471   59.617603
H   43.815838   56.795311   44.252682
H   36.684254   59.980583    4.623608
H   68.062363    0.502604   56.855228
H   98.363487   51.252781   26.251930
H   61.861374   67.128914   54.757263
H   25.911037   37.226971   25.889881
H   98.946327   49.243179   22.558353
H   66.388817   20.075724    3.048140
H    3.000373   77.880348   93.281776
H   14.934023    0.844082   73.303505
H   33.616344   37.264324   95.115379
H   18.447714   47.513069   60.164303
H   68.318451   43.805946   87.757332
H   71.620796   51.410881   21.916924
H   98.434769   77.683273   51.668102
H   55.452274   14.901987   49.680492
H   35.111179   53.266838   48.156059
H   34.559685   50.641693   78.329277
H   21.457590   59.818893   78.600304
H   43.314304   80.937012   33.733391
H   57.355240   65.403557   27.780922
H    1.642494   11.754243   93.020447
H    9.684989   22.776733   43.747955
H   72.126335   40.160839   80.719551
H   86.936844   58.978176   23.716696
