100
TIME:    5.756, STEP:  5756
H   28.067278   94.167717   93.876236
H   41.507820   16.772230   41.039860
H   78.701538   88.014038   55.779270
H   82.442734   95.502228   24.656540
H   43.615082   34.126205    9.636930
H   38.761761   94.972191   48.782665
H   51.297359   50.011150   40.579777
H   67.476044   86.569138   79.697350
H   12.134468   32.877548   37.767166
H   17.544771   99.030998   33.088413
H   64.845932   97.847916   85.302269
H   36.150887   12.209011   83.210960
H   76.764633   13.513611   53.076591
H   70.078194   87.334267   95.273491
H   50.512886   55.878250   74.087799
H   70.087463    8.288238   55.242889
H   61.243843   62.683994   97.379730
H   24.156118   14.751205   99.993690
H   34.919399   19.823893   66.608887
H   37.439888   83.577675    8.227808
H   22.707512   83.189392    1.017022
H   14.213669   51.725159   29.101685
H    8.892119   47.809044   67.664383
H   84.242821    5.686739   79.583084
H   23.716370   29.680214   79.049232
H   20.307226   56.498856   49.148911
H   65.733612    3.205919   14.173574
H   46.866886   25.110313   57.037682
H   36.329887   71.321381   85.083405
H   21.703712   48.378838   40.973709
H   42.590523   38.207233   53.982536
H   29.194462   93.481049   66.402306
H   75.802727   47.345680   16.342894
H   21.306385   46.219627   29.259306
H   37.693497   23.810362   75.227753
H   72.996918   36.263710    1.329656
H   31.874630   93.737427   62.015606
H   26.086872   53.618053   28.626575
H    2.108224   56.003044   86.513374
H   21.042917   73.326439   90.904503
H   41.869431   53.683517   77.954567
H   15.129813   64.175293   73.812309
H   60.820637   98.016968   17.236298
H   11.804405    9.257223   43.526947
H   57.364544    4.790999   48.667095
H    3.825130   72.703720    6.545569
H   86.703415   37.869400   80.717674
H   56.546818   54.654907   24.726553
H   33.283417   55.737030   14.864287
H   46.598446   18.341352   81.081711
H   43.106358   13.938753   14.104585
H   84.863716   29.625324   96.190346
H   28.268696   55.383972   68.570824
H   43.394814   13.286641   85.813316
H   82.493431   63.034290   49.306309
H    0.764828    6.478970   96.678970
H   61.155823   23.460045    3.430881
H   97.452301   33.304848   65.294052
H   44.239738   81.973961   69.592857
H   79.181747   70.214279   99.896263
H   22.793621   10.891861   65.611687
H   94.626228   74.366043   34.913612
H   64.836632   14.503748   38.764252
H   38.293762   73.118500   70.866608
H   60.790184    1.121517   31.600679
H   47.745720   56.125237   86.522972
H   25.754128   47.361309   44.962418
H   82.759377   46.729465   41.372684
H   43.781124   36.196877   99.225342
H   47.000259   37.652184   89.612640
H   39.254387    3.762383   93.100471
H   99.359146   60.494537   78.049820
H   31.689922   33.590729   14.162895
H    3.499588   85.121544   61.151451
H   39.690975   36.846767   37.742325
H   61.736916   76.479179    8.624231
H   89.562431   27.653921   92.845863
H    2.407679   74.350548   32.322136
H   37.533710   36.611538   81.902733
H   17.245354   95.462624   25.036510
H   23.507959   88.830124   24.011469
H   73.214920   81.799316    5.451226
H   81.954887    3.379770   78.116287
H   46.153000    4.712192   37.695164
H   72.059624   88.843605   89.772827
H   18.815403   20.480804   41.497406
H   51.584953   84.844688   98.011719
H   48.601311   44.472927   35.896988
H   75.136337   73.687462   81.114143
H   57.431713   72.459641   29.981016
H   59.581902   84.238739   55.017986
H    4.184610   28.385210   43.200554
H   54.424133    0.226500   64.124893
H    3.563309   62.383007   14.917178
H   57.074074   34.142345   48.352329
H   69.343582   68.433502   70.143997
H    5.718447   98.005928    6.156335
H   27.166918   71.264023   63.327431
H   34.510376   61.662151   62.912872
H   96.739197   30.926922   43.247272
