200
TIME:    0.150, STEP:   150
H    6.705624   62.773685   13.800632
H   27.162111   31.564213   86.243538
H   20.024078   65.198868   40.915215
H   14.808768   75.921822   46.853172
H   16.165710   81.448212   54.952484
H   92.546448   55.257736   68.213615
H    2.055314   55.367989   47.909344
H    0.871772   84.999969   28.266949
H   83.773460   88.855484   49.914967
H   14.029385   76.159569   99.622414
H    9.056650   92.671577   90.117584
H   30.405640   39.620613    8.453918
H    8.965236   84.020973   64.980339
H    8.657795   52.827221   37.928951
H   23.967134   71.251762   43.200035
H   31.923717   29.674595   56.264496
H   79.973557    3.503396   19.801689
H   38.699364   78.840485   45.122654
H   62.030964   32.960171   41.158951
H   89.769920   80.940636   40.959568
H   57.004982   72.265533   29.963779
H   92.032661   45.374275   74.042938
H   97.700294   63.195831   51.295708
H    6.711434   87.253242   91.868858
H   99.334602    9.084230   48.621792
H   18.735594   58.342403    9.929037
H   97.153053   56.990879   45.463242
H   92.444855   66.416740    0.494459
H    7.277975   59.265327   38.865364
H   97.116425   18.353361    1.739084
H   13.478994   47.689182   16.084778
H   33.562672   61.396957   91.387321
H   29.297905    7.048941   72.079834
H   99.405220   63.479729   36.717194
H   52.307438   93.519882   34.903675
H   36.001129   51.973991   78.444450
H   83.681305   76.371521   85.279274
H   37.366772   42.427242   19.214016
H   56.401169   49.623386   42.431091
H   90.945862   40.058590   67.212006
H   80.477531    9.427990   98.536835
H    8.859636   44.994133   42.499786
H   78.322342   89.849419   46.986378
H   37.481766   58.863113   15.529513
H   25.702036   73.549255   41.116081
H   42.326309   16.180737   41.709064
H   78.278137   30.621475   94.205589
H   92.306908   65.551979   50.883133
H   83.599762   32.167538   61.101444
H   65.337967   17.395353    9.520107
H   80.349197   71.635262   31.435513
H   24.578554   34.148907   61.606331
H   49.749817   96.997841    6.750756
H   23.746067   80.284439   80.370384
H   81.008408   78.386505   93.684044
H    6.459391   74.567238   75.701141
H    5.687332   16.404884   50.620014
H   66.425400   56.487186    6.927829
H   30.080252   72.738876    4.949733
H   45.184856   96.494545   68.657974
H   50.710999   17.132330   44.866013
H   88.319641   16.211679   48.376446
H   68.967834   23.342054   87.921265
H   21.945423   65.023933    1.658079
H   69.901611   74.737366   14.249313
H   42.270088   13.064627   31.245560
H   89.536964   25.060390   83.975685
H   97.845421   91.245308   85.489708
H   13.321245    4.637027   63.118950
H   45.755039   40.061344   50.987400
H   58.504646   75.035507   70.873962
H   34.669750   26.187498   45.394825
H   74.637344   24.107159    2.509302
H    4.933301   10.942918   57.952732
H   78.049149   99.414619   71.844513
H   51.038902   22.254055   63.465584
H   95.807983   26.599710   73.418617
H   29.888733    4.331087   51.045082
H   10.846317   25.683588   36.931789
H   69.632217   91.168884   98.529816
H   39.548290   31.623140    2.469534
H   22.679150   70.208672   90.639519
H   11.350846   12.679076   92.913002
H   27.608961   58.916634   90.918182
H   42.113136   98.372162   60.332741
H   22.131603   88.923279   29.656334
H   31.821520    2.596569    1.564997
H   76.079933   21.893972    8.047585
H   62.935036   71.826820   76.838799
H   23.894913   82.013115   55.855648
H   45.015579   34.115856   81.154800
H   84.682335   87.745819   96.404037
H   42.984295   17.877132   98.293076
H   64.063629   97.667061   66.633430
H   22.844379   58.143623   64.191383
H   72.999184   25.697083   33.293255
H   78.084740   17.392080   94.453110
H    9.368849   27.040184   47.741444
H   39.057243   70.679596   52.562302
H   65.639565   96.464828   27.228434
H    5.850808   77.937988   64.701820
H   87.225594   75.294952   66.361046
H   21.313780   40.458984   29.245079
H   17.551237   67.773315   86.588379
H   25.458044   28.655479   22.169636
H   83.860100   31.179258   48.104370
H   61.394924   28.979265   56.678085
H   65.281288   30.818832   22.221697
H   70.509346   41.225708   94.780632
H    1.475629   29.315233    5.096781
H   46.010422   96.848869    0.732529
H   82.380142   61.081772   89.486000
H   58.657188   79.230270   95.892998
H   63.529045   21.337635   77.274841
H   66.853645   78.220856   29.928310
H   17.711407    8.430254   74.874252
H   36.275272    7.175392   83.130905
H   41.227734   22.566586   35.777519
H   15.444392   54.334629   87.987747
H   68.407524   44.878597   45.985405
H   39.615242   21.161366   90.468971
H   22.172421   29.612064   45.540802
H   30.066595   25.618343   21.359301
H    5.403310   70.557732   21.806377
H   79.609398   11.180432   95.789742
H   44.425076   59.889774   27.269114
H   97.623726   48.769699   74.530563
H   77.397285   86.864098   34.242458
H   91.360161   55.741459   86.941277
H   63.382935   24.575924   64.968330
H   44.975914   88.399200   99.971954
H   85.154518   85.158737    7.204580
H   92.731636   78.215996   96.705673
H    5.333739   10.695398   48.599190
H   99.980011    2.997445   60.552551
H   64.755157    1.742357   85.007515
H   68.743713   86.335182   50.858299
H   90.450676   67.030678   84.620415
H   43.960785   43.075012   71.571373
H   43.399193   13.406442   97.958252
H   46.162014   65.715561   12.002772
H   61.381516   38.276260   44.148846
H   57.898682   55.104458    2.419848
H   61.837074   29.785656   76.633034
H   36.071514   72.751923   46.125584
H   42.642517   60.424942   34.156586
H   42.602654   97.171928   47.926311
H   45.109947   76.768837   69.341331
H   62.779270   68.549606   98.839157
H    6.583570   87.678101   93.364403
H   79.392525   59.781475   52.023632
H   29.998892    9.599977   50.972725
H   71.994766   35.203838    6.624157
H    7.530751   99.076782   78.176567
H   10.043697   51.502216   59.124832
H   60.830360   43.305744   51.292061
H   58.369183   58.184727   79.690109
H   44.766502   38.103912    7.615608
H   16.500914    2.073449    5.942485
H   64.688469   60.615997   74.787247
H   53.071892   88.065773   85.808846
H   47.829723   23.522705   36.323662
H   61.345303   38.493782   37.269474
H    7.971142   17.535732   75.049500
H   59.815926   19.034506    8.940231
H   10.363078   67.302559   62.793804
H   76.449593   99.022652   51.267605
H   23.553593   26.837753   44.291096
H   92.850044   28.462893   37.069450
H   22.365784   11.138892   91.416840
H   81.084351    4.563510   35.983627
H   49.272072   68.789703   57.181740
H   35.934013   81.321426   92.956375
H   72.331200   76.701721   72.159317
H   75.620911   95.713577    3.462965
H   98.128571   47.174706   23.200399
H   36.342312   50.109680   83.143089
H    0.932355    9.115028   63.729382
H   77.903206   23.471773   70.187469
H   90.581764   53.489677   85.115395
H   83.060959   81.964241   43.811852
H   17.412348   29.996181   66.330566
H   69.778366   90.259140    4.288743
H   49.521233   25.053656   73.879280
H   84.359100   92.237961   78.767624
H   97.376274   35.464340   83.503761
H   28.218348    6.066215   97.271133
H   94.744858   63.412350   22.377419
H    9.224712   60.772060   65.514816
H   47.976952   58.762890   64.565933
H   43.520840   34.001984   79.944160
H   48.390717   82.483368   25.770742
H    2.101366   15.382892   55.744560
H   36.675983   59.938896   31.499460
H   87.983139   58.275303   22.110683
H   75.108414   10.162603   30.799416
H    8.863040   83.105339    0.429034
H   31.525095   99.194893   49.504898
H   13.113481   11.360067   82.042183
H    8.946466   38.041790   98.999176
