100
TIME:    5.420, STEP:  5420
H   50.789711   24.979916   94.183853
H   50.787605   98.564484   19.853462
H   72.923462   63.840454   59.724461
H   82.386337    9.345856   43.074608
H   46.624603    7.194332   18.746693
H   43.973309   95.336205   15.506802
H   68.906593   27.321819   14.304139
H   93.884979   57.499889   10.546885
H   20.393990   65.182480   58.918411
H   26.725401   94.206535   19.930418
H   96.099838   84.328140   17.668007
H   48.975960   95.367424    7.127885
H   98.205551   33.832893   86.463310
H   86.715157   88.369911   69.705376
H   46.426704   85.891434   90.237701
H   83.596985   37.676102   83.133514
H   88.262886   40.461216   66.792328
H   16.970694   31.099777   11.640863
H   29.686775    5.727387   48.907703
H   46.491524   90.714394   85.351448
H   42.646233   16.638855   10.136581
H   82.001022   51.279114   57.715210
H   13.378844   50.541710   77.277420
H   15.461491    1.667208    4.536264
H   35.733063   56.327553   76.567787
H   21.838903   66.431702   80.745117
H   94.706024   17.173508    7.506589
H   75.217384    9.426964   45.930138
H   29.023979   40.836521    0.966641
H    8.820604   56.694756   14.263134
H   29.365803    8.077844   80.565788
H    7.979372    2.765288   97.507530
H   52.135426   71.929420   86.073357
H    7.108972   77.012108   43.414574
H   46.045303   49.209702   54.767242
H   43.788670    9.946131    2.386339
H   99.647949    6.042690   35.540020
H   39.973225   59.767834    4.916723
H   16.291424   63.324333   19.073965
H   52.689480    4.780590   64.469933
H   64.833054   42.155563   70.038551
H   44.501762   55.111496   57.431873
H   57.926472   96.002075   92.966530
H   33.258266    3.617326   10.675265
H   86.510689   18.047279   19.914602
H    8.160948   66.295029    5.180518
H   84.078415   19.596069   77.492821
H   56.528873   51.194214    3.936821
H   23.462738   83.565369   28.267479
H   39.551449   13.227217    4.583198
H   43.131107   46.377701   10.562501
H   68.534370   60.804790   18.248528
H   21.298603   53.435730   88.084007
H   51.174965   18.769600   70.986168
H    9.246223   33.587635   46.448032
H    0.346308    6.832409    8.117218
H   39.855896   33.155113   71.474525
H   22.471085   65.035561   73.948349
H   17.741079   67.777428   95.386559
H    1.355698   44.387867    9.452888
H    1.597950   26.517323   91.810417
H    6.550939   77.493484   50.117592
H   42.024349   37.432419   61.804779
H   15.220840   71.288177   79.987457
H   47.452415   27.957352    0.309604
H   68.386833   72.828850   66.656029
H   52.711945   35.746197   28.740479
H    5.969258   27.513346   25.309942
H   27.033934   60.339699   20.299126
H   40.194229   20.752037   90.320160
H   49.923576   26.623810   97.130257
H   27.063644   71.645660   53.449600
H   53.597412   50.209747   22.778740
H   10.895229    6.387674   81.115807
H   23.491693   36.367397   12.270630
H   53.792702   54.944901   31.232603
H   59.056644   56.777386   86.903725
H   86.621780   96.319542   13.765208
H   21.422260   37.598476   78.154930
H   33.720146   13.765368   53.983368
H   16.932642   85.354050    3.930091
H   47.997063   79.620361   33.558182
H   60.703270   97.760925   46.117542
H   23.037634   75.960129   68.382904
H   88.419731    9.859921   22.344063
H   26.549412    8.138946   18.164642
H   29.144278    9.274776   81.989990
H   43.197502   71.360535   39.380753
H   68.163681   92.395714   83.862190
H   87.137848   86.281906   17.969847
H   45.831413   66.094452   47.922283
H   79.324013    3.115474   36.799553
H   32.885803   90.146858   38.141499
H   71.089363   41.998241   92.261482
H   62.882912   64.240105   40.631138
H   41.591385   81.702057   87.498734
H   32.387840   78.723457   25.480148
H   26.759893   62.385742   69.300972
H   50.516724   60.213787   91.054817
H   75.867371   39.548054   75.615372
