100
TIME:    9.323, STEP:  9323
H   86.845856   67.058083   90.610550
H   42.997177   10.062843   65.951347
H   40.024685   44.637520   13.902388
H   83.041443   48.543388   29.136774
H   11.657125   20.036545   12.921398
H   83.445679   91.107796    2.033440
H   64.349831   90.871162   19.523922
H   87.116882   95.160416   52.187515
H   24.450737   89.923431   13.237204
H   20.114374   50.249470   72.753883
H   33.052277   41.372086   41.709053
H    0.006228   91.004570   29.307266
H   49.252930   97.680336   98.613831
H   93.462738   76.339790   66.725609
H   93.843147   37.256508    2.558745
H   26.666012   96.305161   59.150452
H   74.406776   98.615700   22.097822
H    0.433614   41.181648   76.344315
H   90.476242   69.466232   54.532177
H   41.336880    7.829599   51.085777
H   11.036514   28.083303    4.201769
H   56.185436   56.460403   25.338684
H   61.266716   18.805059   65.608490
H   52.817303   48.358368   14.666807
H   96.141220   46.800529    5.389843
H    3.646916   51.261459   13.545805
H   58.147102   54.932308   84.949081
H   45.893700   91.605835   74.942558
H   13.890880   94.947777   16.468838
H   58.478065   60.095230   24.540100
H   82.974785   58.066425   71.773010
H   54.417194   94.928604   36.187248
H   27.056587   86.367661   37.686424
H   72.020935   19.325256   78.988579
H   48.932091   53.788063   92.271194
H   83.070129   15.649877   90.116798
H   73.995422   63.106697   43.081196
H   78.654305   88.337975   80.339104
H   51.546535   78.285301   40.844147
H   85.070862   39.395325   71.549759
H   98.091003   76.075974   61.990322
H   14.522350   78.163315   55.915356
H   91.520905   19.414711   74.882103
H   84.043251   69.135597   92.287666
H   47.954308   64.066902   53.907749
H   57.783943   40.732769   21.037050
H   14.580535   31.855543   14.961832
H   56.756649   91.393875   45.431568
H   37.550087   60.318371   72.577240
H   21.473379   72.639793   31.668327
H   43.193333   69.593941   51.199371
H   58.226986   98.633453   62.039162
H    2.250216   76.066650   61.408806
H   60.788322   55.094162   43.213875
H   98.483284   75.628525   79.635941
H    5.207544    2.726832   75.249863
H   87.289764   20.535515   42.682396
H   31.845652   96.444450   73.415794
H   25.564060   32.699394   95.758400
H   43.796429   44.385487   98.442299
H   47.804775   45.007999   87.504555
H   68.026421   41.164902   73.520210
H    6.998684   71.098167   94.164368
H   83.233948   92.549332   74.021881
H    2.367948   16.230358   63.779072
H   28.622318   78.799706   97.432884
H   39.567123   70.680450   17.176575
H   36.362488   50.730049   11.895920
H   21.558504   79.895020   75.511200
H   19.370270   16.915346   82.069687
H   25.978016   61.062588   50.319984
H    5.541284   42.040428   39.417873
H   99.114853   57.155254   22.707127
H   24.974506   59.366138   49.212288
H   11.569451   42.042858    8.177738
H   46.060593    5.089190   68.608566
H   13.509963   18.870655   56.089912
H   69.983528   41.119637   29.324333
H    8.586221   26.134129   21.701815
H   42.316277    1.150732   17.736320
H   93.328758   25.733072   37.206429
H   40.886284    4.936471    7.042085
H    7.573596   63.031773   17.818096
H   91.556679    9.948324   11.905901
H   98.378845   65.709152   43.993301
H   36.722874   51.504463   89.200516
H   89.816933   25.494118   68.099785
H    5.968084   59.040382   98.913834
H   49.164066   75.082680   51.940681
H   42.060558   25.702507   57.489502
H    5.558434   76.844391   30.346825
H   68.106491   96.658524   11.168756
H   83.075851    7.250105   39.966484
H   47.964638   78.762497   55.942013
H   95.400391   14.631611   30.317335
H   63.963165   27.576479   85.903702
H   22.586384    2.706735    1.013464
H   20.281763   47.761799   91.718040
H   64.586815   77.061165   64.139687
H   18.299454   39.391064   99.625137
