100
TIME:    5.437, STEP:  5437
H   49.640053   23.420990   94.168289
H   50.318092   99.485611   20.925365
H   73.215805   65.063522   59.524853
H   82.389191    8.645412   42.142715
H   46.472336    8.556948   18.285805
H   43.709629   95.317787   17.190378
H   68.015556   28.469791   15.633561
H   92.548813   58.970554    8.985982
H   19.976097   63.548004   57.848259
H   26.260881   94.450630   20.596167
H   94.518539   85.012177   16.030483
H   48.327072   96.219551    5.917836
H   97.120743   32.804893   84.774101
H   85.873405   88.317513   70.999001
H   46.633446   84.372910   89.420593
H   82.913467   36.189224   81.722382
H   86.895851   41.585583   68.339905
H   17.334242   30.272617   11.051573
H   29.951557    6.440590   49.803280
H   46.033554   90.353310   86.508888
H   41.637428   14.946404    9.675175
H   83.630829   51.301682   56.267502
H   13.151837   50.403450   76.791046
H   13.881943    1.870577    3.273686
H   35.125031   54.979324   76.693336
H   21.761408   65.929245   79.146439
H   93.240158   16.466839    7.843922
H   73.782906   10.220467   46.492126
H   29.393623   42.378910    0.163074
H    9.472443   56.274010   15.614540
H   30.034859    9.602237   79.220802
H    9.052734    2.295629   95.933754
H   53.332943   70.685600   87.604851
H    7.827281   75.454155   42.698372
H   45.622742   47.924637   55.802376
H   45.266468   11.277660    2.332879
H    1.278472    5.420067   36.879559
H   39.270641   59.456684    6.116332
H   15.573815   62.953911   17.426584
H   51.088337    3.189077   65.807396
H   63.671204   42.738823   70.439064
H   42.973900   55.874519   58.230434
H   58.072903   96.104019   94.194527
H   32.172810    3.902681   12.337399
H   85.036003   17.376602   21.369379
H    7.941566   66.619278    5.249583
H   84.211227   20.520634   77.655983
H   56.529781   51.369308    4.988670
H   23.959618   82.157349   27.589344
H   39.907993   13.485968    3.394228
H   43.129810   44.736481   10.741714
H   69.360558   59.227253   17.132462
H   21.651257   53.534302   87.096733
H   50.781326   18.492172   71.736351
H    7.892614   35.077496   46.592648
H    0.367482    6.814527    7.538498
H   40.933571   32.664589   73.091362
H   21.205280   63.430138   73.510483
H   19.081785   68.495705   94.081520
H    0.233892   45.694592    8.969368
H    2.670340   25.726738   90.484886
H    5.947624   77.335251   49.348343
H   43.178547   36.272385   60.639038
H   16.388203   71.380783   79.525986
H   48.127243   26.599590    1.892784
H   67.342491   71.983727   67.661201
H   51.348022   36.333866   29.561283
H    4.794925   28.485640   26.122641
H   27.881262   59.118187   19.232864
H   40.538582   21.607082   90.284363
H   49.383766   25.467148   96.926369
H   25.661915   71.081467   54.694328
H   52.488998   49.368904   22.342819
H   10.521046    5.311766   80.105705
H   24.311331   36.391651   13.559391
H   54.194641   56.034508   30.088717
H   60.600201   55.303867   87.204369
H   87.420471   95.208015   14.704072
H   22.237423   37.548542   78.344551
H   32.886566   12.839345   52.518799
H   17.265322   85.529922    4.946126
H   49.272919   79.730606   32.136154
H   61.778610   98.045227   47.736584
H   24.207201   77.414841   66.830139
H   87.591988    8.796546   20.696098
H   26.158108    8.763385   19.345169
H   30.279669    8.038706   82.800613
H   43.470909   70.000244   39.204491
H   68.516464   91.449165   83.723152
H   85.634888   85.582565   18.577555
H   46.527122   67.012466   48.281292
H   80.581841    4.394005   37.123413
H   33.975540   90.656837   39.456135
H   72.732399   43.029613   93.407768
H   62.589012   62.717319   41.021793
H   42.995514   81.030731   86.620667
H   31.038492   79.699059   24.502472
H   26.822279   62.530487   69.028862
H   49.706879   60.287067   89.630974
H   76.923386   39.111874   73.977783
