100
TIME:    5.766, STEP:  5766
H   27.391047   93.250664   93.867081
H   41.231636   17.314146   41.670429
H   78.873505   88.733490   55.661854
H   82.444412   95.090240   24.108406
H   43.525513   34.927750    9.365801
H   38.606655   94.961357   49.773037
H   50.773296   50.686428   41.361790
H   66.690063   87.434311   78.779228
H   11.888649   31.916092   37.137665
H   17.271601   99.174583   33.479954
H   63.915756   98.250290   84.338982
H   35.769188   12.710243   82.499138
H   76.126511   12.908867   52.082939
H   69.583046   87.303444   96.034447
H   50.634499   54.985001   73.607147
H   69.685394    7.413585   54.412811
H   60.439705   63.345387   98.290070
H   24.369970   14.264641   99.647011
H   35.075115   20.243433   67.135773
H   37.170494   83.365273    8.908655
H   22.114098   82.193909    0.745608
H   15.172379   51.738434   28.250092
H    8.758586   47.727715   67.378281
H   83.313713    5.806368   78.840439
H   23.358742   28.887138   79.123085
H   20.261641   56.203217   48.208588
H   64.871338    2.790217   14.371996
H   46.023151   25.577080   57.368263
H   36.547325   72.228668   84.610687
H   22.087128   48.131340   41.768692
H   42.984123   39.103916   53.191368
H   29.825871   93.204712   65.476555
H   76.507072   46.614021   17.243773
H   21.728939   45.303185   28.838049
H   37.444931   23.054403   75.836731
H   73.866211   37.046944    1.298206
H   32.833725   93.371216   62.803570
H   25.673588   53.435024   29.332218
H    1.686104   55.785149   85.544289
H   20.101030   72.390312   91.691246
H   41.185989   54.026611   78.190163
H   14.287051   64.214508   74.322868
H   60.906773   98.076935   17.958611
H   11.165882    9.425070   44.504654
H   56.497158    4.396464   49.522808
H    3.696083   72.894455    6.586195
H   86.781540   38.413223   80.813652
H   56.547352   54.757904   25.345297
H   33.575699   54.908859   14.465365
H   46.808178   18.493559   80.382248
H   43.105671   12.973291   14.210004
H   85.349709   28.697399   95.533913
H   28.476139   55.441956   67.990074
H   43.163261   13.123467   86.254601
H   81.697227   63.910679   49.391376
H    0.777284    6.468451   96.338547
H   61.789749   23.171501    4.381977
H   96.707672   32.360481   65.036484
H   45.028389   82.396477   68.825188
H   78.521805   70.982864   99.611839
H   23.424458   10.426830   64.831963
H   94.271309   74.272964   34.461113
H   65.515495   13.821356   38.078522
H   38.980484   73.172974   70.595154
H   61.187141    0.322826   32.531940
H   47.131401   55.628105   87.114250
H   24.951782   47.706997   45.445206
H   82.068611   47.301365   41.850742
H   44.279552   35.478340   98.598206
H   47.202820   38.155190   89.591583
H   38.936852    3.081974   92.980537
H   98.534561   60.162659   78.781937
H   31.037876   33.096115   13.906471
H    3.279476   84.488609   60.557274
H   40.173077   36.861034   38.500381
H   61.973351   77.120049    7.951375
H   90.470329   26.787184   93.022713
H    2.877497   73.696709   32.874428
H   38.013218   36.582165   82.014275
H   16.754974   94.917885   24.174999
H   23.703653   88.933578   24.609118
H   73.965500   81.864166    4.614710
H   82.587364    3.546992   79.068588
H   46.840942    5.567924   36.781849
H   71.572716   88.218147   88.803436
H   18.585224   20.848122   42.191833
H   52.252831   84.117607   98.488556
H   48.762138   43.672680   35.793304
H   75.343857   73.130669   81.032356
H   56.547543   72.048264   30.338491
H   59.991142   84.778748   55.229168
H    4.924509   29.137278   43.391060
H   55.065155    0.526561   64.898209
H    4.529753   62.989697   15.591445
H   56.901192   33.246578   48.582127
H   70.169540   68.038605   69.627487
H    4.924704   98.579811    5.581212
H   27.147615   71.758865   63.126701
H   34.033997   61.705257   62.075241
H   97.360382   30.670307   42.283909
