100
TIME:    6.119, STEP:  6119
H    3.519729   60.878685   93.543900
H   31.482410   36.443775   63.929531
H   84.943924   14.129416   51.517056
H   82.503662   80.547089    4.758889
H   40.363724   63.222260   99.794968
H   33.131428   94.578926   84.731560
H   32.273869   74.522545   68.966850
H   38.944962   17.973637   46.368076
H    3.211220   97.976379   14.917270
H    7.628683    4.243455   47.301334
H   31.080551   12.453665   50.336021
H   22.295227   30.404285   57.371803
H   53.600784   91.561928   17.007011
H   52.104332   86.215401   22.898457
H   54.927376   23.453583   56.638905
H   55.492355   76.538857   25.110737
H   32.053627   86.695152   30.425055
H   31.918943   97.088699   87.409218
H   40.571888   35.053207   85.734848
H   27.660889   75.867470   32.942558
H    1.166592   47.052044   91.163399
H   49.014832   52.207047   98.188934
H    4.045137   44.856789   57.278870
H   50.515102   10.029268   52.623890
H   10.734197    0.891571   81.730080
H   18.652468   45.767159   15.014500
H   34.430443   88.117447   21.376791
H   16.238602   42.053932   69.036636
H   44.222878    4.255816   67.923767
H   35.622044   39.394676   69.831589
H   56.878220   70.757393   25.263130
H   52.114597   83.450027   32.797554
H    1.370583   20.787046   49.044800
H   36.644676   12.952815   13.967676
H   28.670052   96.369637   97.332367
H    4.552118   64.695091    0.188058
H   66.689857   80.443970   90.618690
H   11.083971   46.974094   54.241405
H   86.787201   48.093437   51.335564
H   86.851913   39.343029   19.464228
H   17.061352   66.138298   86.506691
H   84.537918   65.598801   92.345604
H   63.947369    0.193841   43.455650
H   88.625092   15.350058   79.018883
H   25.878166   90.468033   79.729477
H   99.140495   79.627396    8.020311
H   89.539352   57.610184   84.201668
H   56.566204   58.393692   47.186954
H   43.893257   25.674431    0.383462
H   54.211811   23.866488   55.692200
H   43.081432   78.893387   17.930950
H    2.505049   95.941727   72.361824
H   35.798885   57.488770   47.487446
H   34.989471    7.363437    1.831785
H   53.591240   94.844513   52.394268
H    1.216966    6.097129   84.321594
H   84.169777   12.985709   37.955345
H   70.422272   99.023125   55.944321
H   72.868607   97.311287   41.726448
H   55.226845   98.113922   89.571678
H   45.692158   94.010513   37.310314
H   81.742653   70.987289   18.487885
H   89.479378   89.733192   13.872253
H   63.221764   75.095901   61.011990
H   75.197586   72.130630   65.404854
H   25.446354   38.079369    7.986618
H   96.629227   59.909779   62.487625
H   57.684593   67.489418   58.726185
H   61.874073   10.114006   76.460297
H   54.353203   55.911301   88.848267
H   27.727337   79.064148   88.746864
H   69.426712   48.447342    4.625922
H    8.020645   15.636253    4.854706
H   95.508034   62.146244   39.582817
H   57.191257   37.364658   65.259781
H   70.317467   99.742729   84.198151
H   22.520142   96.191505   99.265495
H   19.462078   50.614624   52.370331
H   54.939831   35.545292   85.951698
H   99.444046   75.688606   93.763939
H   30.611650   92.585526   45.706989
H    0.460930   84.153366   75.086571
H    4.914316    9.450002   12.685591
H   71.126106   35.775536    4.541633
H   54.384865   66.139488   54.583939
H   10.459911   33.814606   66.705124
H   75.828896   58.451637   15.321035
H   54.439354   15.424746   32.133278
H   82.669296   53.475868   78.145271
H   25.336611   57.525455   42.956200
H   74.437340    3.840744   62.683880
H   31.042933   55.686462   50.115921
H   77.693222   11.118779   92.196243
H   38.645107   84.405830   39.393723
H   50.798454    1.626063   56.693974
H   99.325867   54.098724   51.394684
H   76.905022   18.837164   85.279861
H   26.466242   89.226807   56.040955
H   17.217804   63.226902   32.506859
H   19.286318   21.611809    8.277326
