100
TIME:    4.456, STEP:  4456
H   15.981281   13.383356   95.066422
H   77.411751   46.328659   59.072037
H   56.349281   94.486961   71.038826
H   82.224533   49.063530   95.913948
H   55.259064   29.925554   44.883560
H   58.925488   96.380577   20.038511
H   19.431774   62.229458   38.918011
H   69.653481   74.101959   99.058113
H   44.090950   57.867172   19.597277
H   53.069328   80.364922   82.182190
H   85.768768   45.539265   10.525368
H   85.767357   47.046806   75.746254
H   59.720535   92.126534   82.251465
H   34.445518   91.341225   96.342850
H   34.703255   71.999573   36.576313
H   22.358429   21.991142   63.154236
H   65.782112   76.699875   79.035606
H   96.357826   78.003197   45.058544
H   14.672081   65.290131   98.122864
H   72.463493   11.187952   19.717783
H   99.851372   12.607998   36.300453
H   89.581406   49.999390   39.808701
H   26.250008   58.381859    4.858008
H    5.030830   90.124390   76.132217
H   70.212067   32.776581   69.448402
H   26.233358   94.923950   71.395638
H   77.833519   57.248104   88.381752
H   56.556736   64.430725   14.062179
H    8.062284   53.375027   46.534218
H   71.856186   80.553520   37.627388
H   91.426491   21.633945   56.834404
H   47.111706   29.397522   86.749825
H   84.232155   42.459770   99.228622
H   66.378113   65.356934   84.027428
H   70.007034   22.080833   96.068588
H   59.990040   34.442066    5.418761
H    7.187742   41.348129   59.580677
H   79.816750   77.406258   36.888805
H   56.985180   84.329460   12.492887
H   43.487892   95.027153   88.623230
H   30.715176    9.081311   47.327129
H   31.141251   11.845027   12.148203
H   49.622974   90.221252   23.335726
H   94.813736   87.447357   16.419165
H   70.129814   56.078621   37.422993
H   20.599178   47.908192    1.261953
H   76.547165   67.170250   68.240562
H   56.477390   41.265320   44.289940
H   95.285263   63.402615   66.724518
H   19.333279   98.555244   72.004982
H   43.204655   39.445778    0.400093
H   21.685511   50.256252   81.533997
H    1.302181   47.846130   44.071972
H   73.499718   34.501381   28.446682
H   86.001343   49.101643   38.247501
H   99.141678    7.846443   40.934052
H   78.742355   60.970726   79.790077
H   94.252823   56.073540   98.777939
H   41.711502   27.046276   69.394569
H   64.967346   70.291931   36.871346
H   40.788940   71.346092   66.969948
H   40.762474   86.466263   93.733521
H   76.578957    3.213279   27.909172
H   49.025597   66.036896    6.157337
H    9.187913    4.950273   10.536799
H   27.605843   20.751717    9.656991
H   30.055708    2.419216   82.197556
H   72.559319   72.380508   79.225166
H   78.989151   29.606583   80.760376
H   20.665270   72.267578   92.350067
H   80.533989   92.213348    8.694145
H    6.550041    3.638880   82.869621
H   16.451864   97.895729   47.498009
H   32.115627   67.396324   38.393150
H   77.012093   34.992062   39.193447
H   31.000376   93.160362   96.097702
H   71.531601   40.329990   69.855446
H   41.331310   59.354778   60.529617
H   75.193275   40.430050   67.402306
H   80.994476   66.272026   37.032768
H   98.069687   75.381027   46.313244
H   75.664742   73.328629   14.169474
H   99.725304   81.639343   54.311573
H   56.714706   93.468330   56.429359
H   35.359665   70.160469   15.793050
H   48.738651   72.732399   51.221420
H   64.760887   79.365417   36.022888
H   27.681398   48.536018   49.402565
H   48.158798   46.068901   91.746468
H   72.369003   25.943459   83.508118
H    6.380569   14.043419   27.564371
H    7.996001   30.614594   18.433779
H   71.091774   61.220627   63.593853
H   77.917465   83.522476   27.264208
H   79.548744   50.588936   18.480915
H   61.968918   19.768890   37.290886
H    8.906304   23.401134   80.920151
H   23.222265   54.177856   84.731209
H   96.439697   56.058361   71.800926
H   15.990999   64.282112   68.480392
