100
TIME:    4.657, STEP:  4657
H    2.388963   94.950783   94.882401
H   71.860451   57.221169   71.745544
H   59.804276    8.947494   68.680290
H   82.258270   40.782585   84.897224
H   53.458725   46.036591   39.433472
H   55.807865   96.162819   39.944523
H    8.897598   75.801208   54.636471
H   53.855278   91.491943   80.603874
H   39.149986   38.541901    6.944792
H   47.576302   83.250984   90.052155
H   67.072235   53.626987   91.163727
H   78.096748   57.121956   61.438622
H   46.894272   79.971947   62.279053
H   24.493629   90.721687   11.639201
H   37.147667   54.045258   26.914082
H   14.276073    4.410749   46.469666
H   49.618935   89.995392   97.333427
H    0.654905   68.222481   38.090282
H   17.802738   73.721359    8.712122
H   67.047142    6.919432   33.402809
H   87.923744   92.597870   30.845600
H    8.851471   50.266220   22.691681
H   23.566368   56.747139   99.107025
H   86.355713   92.535065   61.204758
H   63.022980   16.835762   70.932838
H   25.317087   88.983139   52.494549
H   60.501495   48.892017   92.368874
H   39.597668   73.812729   20.706758
H   12.433166   71.611504   37.032600
H   79.563599   75.578819   53.606544
H   99.336327   39.657711   40.931923
H   59.803020   23.844688   68.142235
H   98.389503   27.753649   17.336294
H   74.870682   46.936432   75.559395
H   65.010864    6.886602    8.308022
H   77.462830   50.185062    4.786381
H   26.466234   33.987289   75.418747
H   71.508202   73.728905   51.072224
H   48.500278   79.949760   93.014694
H   24.556429   76.211006    4.436987
H   16.978775   15.977498   52.062603
H   13.076193   20.866159   21.590570
H   51.354305   91.426590   37.853905
H   81.978271   90.814941   36.071999
H   52.694820   48.148849   54.622822
H   18.006016   51.741962    2.079069
H   78.117477   78.101097   70.169716
H   56.488125   43.335556   56.726692
H    1.161397   46.756382   58.706322
H   23.548893    1.613867   57.946442
H   43.189320   20.040291    2.519018
H   31.453192   31.604208   68.339691
H    5.471536   49.011597   32.397373
H   68.843987   31.221207   37.316185
H   69.997650   66.717293   39.957363
H   99.393173    7.635011   34.091537
H   91.485809   55.170998   98.906792
H   79.285782   37.091774   93.600815
H   57.563377   35.539291   53.963409
H   51.703922   85.740494   31.154427
H   53.467987   61.998158   51.298737
H   33.628593   84.595383   84.639816
H   90.224113   89.497482   14.125999
H   62.828705   67.131821    0.699583
H   17.165991   88.897217   29.255568
H   15.258442   10.759563   21.541510
H   13.928568    9.368079   91.901596
H   58.674934   83.875687   88.834129
H   89.006027   15.164001   68.154938
H   24.737501   82.376465   91.926819
H   74.151527   78.537521    6.282840
H   89.976288   96.968002   97.585167
H    3.345799   87.952461   42.343887
H   27.689922   54.676281   26.450188
H   86.703865   35.278828   54.430386
H   35.752716    6.042280   82.572159
H   89.780350   22.908203   73.410118
H   50.774654   46.211079   71.629631
H   84.832909   39.839649   69.644295
H   71.137085   55.324627   19.716393
H    2.002263   77.460464   58.326748
H   90.745262   74.641312   97.361595
H   12.439470   85.000793   73.453598
H   70.543076   10.668402   38.071732
H   25.572309   57.587982   96.308586
H   44.112057   80.114708   65.179413
H   78.185219   64.751083   45.607315
H   30.916334   32.443382   47.312393
H   52.329941   34.877357   90.102547
H   54.597897   17.673248   90.694138
H   14.606345   24.896824   31.809122
H   22.869291   45.730385   22.263716
H   83.976311   67.252739   79.137497
H   97.343948   95.713867   40.816090
H   76.073814   32.584015   23.099075
H   78.570679   11.832016   26.909035
H   92.951897   34.936184   69.360565
H   23.959883   55.889252   81.513908
H   86.864471   56.924793   54.965248
H   28.475290   59.124844   49.117138
