100
TIME:    7.367, STEP:  7367
H   19.122141   46.431526   92.401321
H   97.018784    4.069736   42.618397
H    6.402860    3.915884   36.863491
H   82.713135   29.130806   36.352230
H   29.184301   63.254879   65.955612
H   13.774524   93.226875    8.324482
H   66.864075   58.793980   66.562149
H   40.854622   25.941212   31.780334
H   72.532951   77.986328   36.360317
H   73.540718   22.164202   96.165596
H   14.994629   62.669804   30.123102
H   74.664337   92.960434   68.537987
H   73.980553   16.071072   92.994576
H   90.311775   82.368721   17.871632
H   70.085579   11.976067   96.624298
H    5.311664   67.384216   21.515631
H   31.696877   69.239487   44.035427
H   58.607662   36.360672   44.147964
H   60.005238   87.407593   51.482876
H   94.038834   49.364918   17.912180
H   27.108490   22.809006   57.287846
H   68.661804   53.863785   91.910202
H   87.382133   34.706886   21.571913
H   34.557190   24.958956   59.937263
H   66.098091    1.919197   90.946877
H   12.871288    8.923130   97.614769
H   26.813917   36.239304   46.142170
H   10.936044    0.306372   10.285485
H   71.359108   17.483969    8.930513
H   83.477020    8.506403   69.043999
H    5.992250   82.668564   26.525414
H   30.914028   48.967365   17.263939
H   89.278450   29.477129   61.474495
H   89.374657   98.581215   61.391159
H   97.611229    1.884776   73.266815
H   13.038551   62.443893   96.265114
H   86.390060   34.740845   88.956207
H   59.498901   24.132053   42.309616
H   34.108944   20.902021   30.394932
H   69.303581   22.509195   17.654345
H   31.768751    8.964124   15.907812
H   79.363258   70.492844   56.057270
H   74.687653    7.680342   33.599773
H    8.936636   36.297325    1.042176
H   17.623482   41.227322   86.523872
H   83.030144    3.430529   13.090502
H   99.289352   25.480995   96.179695
H   56.637264   71.247696   24.405727
H   80.374336   22.315342   50.602524
H   80.411377   42.863888   68.432655
H   42.995739   58.407318   31.084881
H   63.164822   80.136169   90.438965
H   61.687801   64.725098   75.005745
H    6.091766   87.003906   56.901443
H   54.223587    4.213081   63.010723
H    2.771349    4.784354   41.836731
H   63.286175   76.974663   56.650475
H   77.493820   81.164970   23.798574
H   71.294487   50.049580   45.920952
H   72.871925   94.039627   54.075584
H   24.416788   35.972145   40.006363
H   37.448708   59.371078   62.022568
H   74.207024    4.571822   28.293152
H   48.918972   81.894241   27.125027
H   24.730915   72.455048   81.625404
H   48.780914   76.037987   81.778381
H   96.499847    3.059812   22.741255
H   71.476631   38.864494   18.387802
H   24.071922   20.440689   98.186371
H   79.644707   18.670534   86.218307
H   88.096352   94.151108   73.779091
H   66.611946    6.986129   96.044868
H   26.649343   53.909557   72.861145
H   68.029030   83.161682   65.431427
H   17.347094   39.162701   59.872578
H   99.815025   79.729027    0.224447
H   35.863972   88.167793   21.395994
H   78.095383   69.011375   21.290934
H   14.788562   31.879520   99.872108
H   38.239944    7.703792   86.247627
H   55.036095    5.497354   20.298416
H   94.110725   92.246765   70.680229
H   83.854500   30.320349   31.539024
H   56.986301   42.569576   90.555840
H   93.618042   88.071190   33.604256
H   81.739975   79.657303   53.370087
H   59.180058   67.711555   74.830315
H   74.510643   15.558847   19.193581
H    8.568940   83.989754   67.938240
H   14.996711    6.176090   87.569382
H   25.510731   71.227226   89.039352
H   23.382296   49.547943   73.895027
H   57.692371   48.566776   88.706001
H   59.257614   60.120201   23.544260
H   29.222157   89.838333   85.372681
H    2.405574    4.817684   86.933647
H   77.844658   90.456894   13.505767
H   24.057306   50.977634   30.989737
H   57.766136   68.614693   27.973774
H   96.804756   89.585037   88.053696
