100
TIME:    4.744, STEP:  4744
H   96.505531   86.972420   94.802750
H   69.457649   61.935837   77.230835
H   61.299721   15.206393   67.659431
H   82.272873   37.198296   80.128792
H   52.679474   53.010025   37.074478
H   54.458447   96.068565   48.560757
H    4.338017   81.675461   61.439983
H   47.017250   99.018951   72.616219
H   37.011360   30.177231    1.468298
H   45.198723   84.500175   93.458557
H   58.979706   57.127644   82.783127
H   74.776634   61.482841   55.245766
H   41.342606   74.711006   53.634277
H   20.186176   90.453529   18.260180
H   38.205696   46.273987   22.732079
H   10.777740   96.801346   39.247986
H   42.622932   95.750168    5.253385
H    2.515294   63.989040   35.074169
H   19.157799   77.370697   13.295366
H   64.702751    5.071863   39.326180
H   82.761040   83.937164   28.484283
H   17.192245   50.381714   15.282822
H   22.404793   56.039574   96.617935
H   78.272476   93.578491   54.743080
H   59.911285    9.936005   71.575356
H   24.920492   86.411743   44.313740
H   52.999046   45.275204   94.094643
H   32.257175   77.873596   23.582819
H   14.325040   79.504906   32.919960
H   82.899643   73.425591   60.522896
H    2.760364   47.458851   34.048759
H   65.296272   21.441223   60.088203
H    4.517675   21.388548   25.173941
H   78.546570   38.963379   71.894127
H   62.848343    0.309929   13.605469
H   85.025681   56.999195    4.512664
H   34.810547   30.801128   82.274033
H   67.911964   72.137215   57.211315
H   44.827709   78.054070   84.583649
H   16.362013   68.066704   11.281984
H   11.033169   18.962416   54.112286
H    5.256936   24.770712   25.677324
H   52.103687   91.948303   44.137695
H   76.422623   92.272552   44.578712
H   45.148563   44.716560   62.067524
H   16.883602   53.401356    2.432727
H   78.797165   82.832359   71.004723
H   56.492771   44.231628   62.109764
H    3.704328   39.551296   55.235535
H   25.373562    2.938063   51.861778
H   43.182682   11.640774    3.436165
H   35.681282   23.531260   62.628563
H    7.276209   49.516052   27.344496
H   66.828819   29.801430   41.155357
H   63.070679   74.342537   40.697453
H   99.502029    7.543495   31.129852
H   97.001633   52.660667    7.181319
H   72.807510   28.875658   91.359970
H   64.424675   39.215179   47.284019
H   45.963085   92.427185   28.679939
H   58.955933   57.952557   44.515800
H   30.540953   83.785599   80.703735
H   96.130226   83.560837    8.160149
H   68.802650   67.605743   98.337738
H   20.619188   81.949005   37.357502
H    9.914200    6.434687   26.685629
H    6.948177   12.375730   96.101852
H   52.665276   88.851212   92.993233
H   93.341690    8.912735   62.698692
H   26.500109   86.751953   91.743622
H   71.388969   72.618134    5.239165
H   82.802399   94.080658    3.954814
H   97.673157   83.648659   40.112999
H   25.774532   49.170414   21.280945
H   90.898811   35.402950   61.025478
H   37.809700   11.618204   76.717819
H   97.679062   15.367588   74.948708
H   54.862072   40.522015   76.433907
H   89.005287   39.584103   70.614708
H   66.870453   50.586063   12.221329
H    3.704718   78.360519   63.526623
H   97.272652   75.209488   90.086815
H   17.942682   86.455750   81.738617
H   76.528839   18.113317   30.125893
H   21.335878   52.145836   87.874886
H   42.109501   83.310036   71.220932
H   83.995750   58.425476   49.755798
H   32.316605   25.478224   46.407692
H   54.135361   30.033392   89.390999
H   46.905613   14.093605   93.804504
H   18.166740   29.594566   33.646404
H   29.306856   52.273239   23.921347
H   89.553200   69.863960   85.865341
H    5.752805    0.990808   46.681713
H   74.569740   24.790840   25.097980
H   85.756516    8.396574   22.415398
H   86.046165   39.928967   64.357162
H   24.279150   56.630005   80.121346
H   82.719971   57.299816   47.677856
H   33.878941   56.892628   40.735874
