100
TIME:    8.237, STEP:  8237
H   60.287346   66.648979   91.604813
H   72.990768   51.216068   97.473892
H   21.357401   66.506714   26.650005
H   82.859161   93.285210   88.664619
H   21.388472   32.989124   42.365677
H    0.281975   92.284340   94.483559
H   21.269386   17.539042   34.597294
H   72.474335    1.207858   51.900459
H   51.146690   94.338608   81.597778
H   49.778206   34.656116   30.232410
H   34.069351   97.676361   46.319717
H   41.458687   36.568691    6.610771
H   18.503716   63.410172    6.536996
H   47.233925   79.687141   84.079414
H   80.652596   34.263382   54.782501
H   70.331223   91.290733   49.298126
H   61.736488   26.784512   23.234961
H   77.208069   94.026711   13.991596
H   73.557205   23.905140   97.320145
H   70.594925   30.892351   77.145882
H   75.481468   36.198124   33.677998
H   52.069553   55.018723   17.821609
H   75.766380   27.633284   96.679199
H   53.722435   35.366669   95.322296
H   34.981148   32.925079   97.372047
H    8.769268   83.276718   15.743681
H   51.793777    0.073513   63.406498
H   37.527626   40.915012   39.043915
H   90.276192   96.417374   67.804680
H   16.836536   86.973465   38.206055
H   40.233456   60.682526   57.693855
H   85.846581   24.932713   36.723701
H   50.560696   65.824242   39.850967
H   26.135181   18.850685   24.739138
H   75.959465   36.013512   26.197699
H   88.666290   30.586733   93.530434
H   69.833733    2.877473   57.508694
H   23.542385    8.209328    3.704478
H   97.384300    1.948430   46.085609
H   87.360016   41.063057   86.104797
H   72.311035   38.813293   36.404629
H    6.044398   73.904556    0.474683
H   82.174835   12.899134   96.441109
H   53.382793   50.901497   86.105377
H   42.156898    6.904274   60.973419
H   71.799370   20.021358   16.625010
H    6.089938   72.794075    4.532655
H   56.690365   80.208420   78.236443
H    5.808179   50.261101   15.896189
H   98.677979   56.105846    7.600884
H   42.936001   74.414207   40.257675
H    5.446487   99.405991   33.329285
H   79.729576   69.769653   24.480043
H   85.942108   72.812775   95.293167
H   84.952431   80.456497   70.405869
H    3.854933    3.869199   12.219879
H   18.442558   51.871361   39.394768
H   12.712010   99.003868    1.387842
H   39.909496   86.810982   79.132095
H   15.462516   60.912502   29.330711
H   79.296707   95.513428   72.173897
H    6.570717   51.273239   22.655910
H   33.270184   45.205231   68.634644
H    8.659397   86.633469    3.502624
H   59.265511    2.968032   62.644928
H   95.337135   32.787560   33.220081
H   26.698874   33.137272   64.744553
H   11.379915   88.619743   59.978836
H   67.434662   57.928047   43.623039
H   97.313927   62.365681   84.373062
H   60.469921   34.955696   63.344826
H   94.970779   78.099022   59.813778
H   69.923279   10.876539   50.554768
H   48.878239   28.100468   13.739180
H   59.255569   40.443752   25.836401
H   20.383760   35.487076   41.683601
H   14.878041   12.866653   36.826073
H   18.967535   12.126568   69.341064
H   56.505760   29.324055    9.581192
H   95.575615   60.311119   11.296255
H   72.068108   14.497903   72.297165
H   59.393181   97.888702   97.897057
H   38.883026   44.869907   14.392888
H   16.842224   17.017008   11.095131
H   51.257050   33.646793   49.268196
H   61.720295   11.611789   13.785630
H   17.285463    4.455226   16.315269
H   88.502647   45.941513   10.173119
H   26.626457   35.548744   60.822762
H   38.077320   70.385147   18.670408
H   61.114674   18.205936    7.412471
H   87.753487   14.980679   90.475685
H   13.460972   74.669640   55.984436
H   43.339783   12.902089   82.207069
H   14.178097   11.908783    5.364602
H   74.264008   70.461914   41.997276
H    8.788288   40.383125   63.471291
H   22.378000   94.026924   13.522963
H   16.321129   72.371559   55.103153
H   50.842098   67.256241    4.243196
