100
TIME:    7.946, STEP:  7946
H   79.966789   93.335228   91.871231
H   81.027725   35.446316   79.126541
H   16.355394   45.570663   30.065712
H   82.810318    5.274532    4.614641
H   23.996042    9.664189   50.256104
H    4.795014   92.599602   65.665962
H   36.520405   97.888733   11.840717
H   95.346359   76.031395   78.618797
H   58.300026   22.317623   99.914047
H   57.726357   30.477785   18.837471
H   61.137466   85.967270   74.349976
H   52.566116   21.982281   27.323715
H   37.059761   81.024796   35.455463
H   61.642723   80.584084   61.935390
H   77.118111   60.256943   68.776886
H   82.031433   16.742920   73.453400
H   85.136909    7.537761   96.744080
H   70.987198    8.186678   24.078754
H   69.023651   11.696515   81.987762
H   78.436508   37.071239   57.333229
H   92.749825   65.168823   41.575085
H   24.171099   54.632416   42.602966
H   79.651649   29.998857    5.005115
H   80.760315   31.885469   16.934460
H   45.389229   56.003578   95.222939
H   10.141323   91.855392   43.128624
H   76.887039   12.170430   57.631878
H   62.080307   27.332113   29.424284
H   83.948753   70.015305   81.560753
H    5.678641   94.175644   15.072865
H   28.779993   34.589058   80.716850
H   67.472588   32.971889   63.663048
H   30.062120   87.115517   13.635388
H   13.838958   45.519173   36.998169
H   83.201607   58.046318    8.492207
H   63.369862    7.793523   94.445137
H   41.923717   13.535307   34.578945
H   35.569740   13.534922   83.168404
H    9.667649    8.288080   74.286003
H   14.769413   68.306213   63.210495
H   92.199173   28.829260   29.548796
H   30.568443   72.763397   85.617455
H   79.670502   11.153538   75.420692
H   71.963730   46.015648   57.652378
H   67.398201   18.384846   36.071075
H   75.555870   14.472083   15.442778
H    3.815113   56.968819    1.737924
H   56.672604   77.211212   60.230999
H   97.301888   74.361824   27.504269
H   92.568115   51.676640   27.947708
H   42.955982    2.508127   37.189423
H   91.303787   26.408651   52.431488
H   73.695198   68.082336   41.380348
H   92.682495   77.559464   82.451797
H    8.122253   54.955025   67.932617
H    3.492492    4.175303   22.126205
H   99.994843   60.267982   11.718244
H   34.379807   26.485929    8.883685
H   16.958275   74.515770    1.471359
H   34.664642   38.544453   37.607445
H   60.940472    9.046375   94.863869
H   16.898872   53.981827   35.822853
H   13.514071   65.062286   88.589386
H   88.677422   85.048279   11.403754
H   47.714050   26.210165   35.545731
H   13.213020   47.254082   16.013889
H   50.046265   23.076771   50.695415
H   31.481316   71.977470   46.067352
H   52.930923   78.837456   61.874924
H   91.403877   47.750408   84.990265
H   69.711052   54.756561   66.834908
H   18.933891   87.761131   38.484760
H   88.896713   25.270906   58.016705
H   55.283382   46.516880   31.028627
H   45.237518   40.015263    3.772818
H   13.503705   16.836468   61.263138
H   88.448936   38.054298   31.664286
H    5.297317   31.153286   53.268635
H   42.552094   30.178814    6.333662
H    9.846257   76.163017   36.366127
H   66.371193   11.487374   54.904480
H   37.557968   96.001572   22.242172
H   20.476427   40.003330   86.679855
H   96.821815   92.115356   37.672695
H   65.426071   51.849834   77.477470
H   68.417038    0.922858   93.577438
H   97.850151   25.613548    2.439213
H   83.822563   69.228210   13.190308
H   20.586529   51.751427   63.202766
H   63.806683   82.356216    8.268290
H   49.205769    2.493444    1.266816
H   66.222435   93.094864   84.929741
H   94.807526   65.939995   33.480957
H   15.216433   95.247520   62.585354
H   19.210075   37.975609   98.677948
H   50.228622   81.953430   57.027718
H   31.885832   23.683681   80.206810
H   22.939699   79.627007   19.365297
H   30.183769   71.114952   79.476814
H   32.767826   74.724838   32.276844
