100
TIME:    7.695, STEP:  7695
H   96.941154   16.352833   92.101028
H   87.959946   21.844227   63.301075
H   12.040949   27.512657   33.012234
H   82.768188   15.616371   18.373138
H   26.245184   89.545525   57.061935
H    8.687686   92.871529   40.807762
H   49.674389   80.941177   92.212173
H   15.074471   54.316395    1.663751
H   64.470085   46.450562   15.713661
H   64.581978   26.873796    9.008846
H   84.484879   75.867676   98.528488
H   62.146751    9.401127   45.190208
H   53.065147   96.218231   60.398052
H   74.070930   81.357735   42.833485
H   74.069466   82.677505   80.848907
H   92.123367   38.696228   94.288361
H    5.320890   90.935654   73.894562
H   65.621429   20.400101   32.779373
H   65.113266    1.166202   68.762924
H   85.200211   42.400623   40.243965
H    7.644501   90.155457   48.386662
H    0.107483   54.299210   63.977951
H   83.002861   32.039284   12.186761
H    4.081102   28.882784   35.575996
H   54.366646   75.908630   93.369240
H   11.324780   99.254868   66.749657
H   98.530121   22.604364   52.651020
H   83.259789   15.616279   21.127642
H   78.491066   47.242390   93.425957
H   96.054291    0.387860   95.119438
H   18.901579   12.081558    0.575169
H   51.624233   39.906025   86.899391
H   12.381989    5.479934   91.023323
H    3.233330   68.521889   47.572678
H   89.448265   77.050560   93.221283
H   41.550602   88.133957   95.234108
H   17.849964   22.728159   14.801084
H   45.943176   18.128696   65.454857
H   20.262936   13.756300   98.610054
H   38.410515   91.802994   43.461327
H    9.353132   20.217604   23.635344
H   51.721291   71.779099   72.802422
H   77.510406    9.647886   57.290386
H   87.992096   41.802696   33.111935
H   89.171501   28.287197   14.591904
H   78.796013    9.685596   14.423052
H    1.852978   43.318855   99.327766
H   56.657284   74.625992   44.700527
H   89.963692   95.150826   37.517258
H   87.298096   47.856258   45.498260
H   42.973217   26.741217   34.542923
H   79.105377   49.700298   68.907959
H   68.490288   66.626953   55.957161
H   98.496368   81.653687   71.375565
H   28.107922   32.957672   65.799332
H    3.179872    4.439330   30.670837
H   84.081375   67.510429   87.845909
H   53.069992   50.189751   15.349130
H   97.161980   63.910603   20.740826
H   51.227287   19.251049   44.746483
H   45.107433   20.718838   14.433875
H   25.807350   56.318100   47.180588
H   96.473747   82.189850    5.801208
H   71.442619   83.680984   18.218838
H   37.750420   46.257793   12.170699
H   28.631466   59.732079    1.172336
H   70.184174   14.399136   38.577435
H   48.819527   57.622795   34.068100
H   40.420372   96.872719   77.616302
H   86.306206   35.144108   85.522629
H   77.681190   71.834335   69.845253
H   39.602856   96.095116   20.086946
H    5.262228   37.686230   64.452942
H   60.808094   62.401623   45.942413
H   33.146347   39.645672   84.741837
H    7.569649    0.749587   78.152931
H   65.653038   59.779724   27.212919
H   93.505417   47.564648   39.406109
H   30.516455   30.916080    3.532528
H   22.155018   89.835960   57.990059
H   61.457359    8.890664   39.902542
H   18.723484   94.373840   43.240353
H    4.600226   35.805698   62.777000
H   79.552544   70.636963   60.596897
H   77.647461   67.551170    1.809144
H   74.192612   91.704056   76.147308
H   81.086433   43.863289   90.470573
H   79.785789   89.312500   15.792763
H   15.376832   65.726936   65.255623
H   85.997467   92.681778   99.295822
H   38.933826   88.939507   95.966110
H   47.650974   74.217010   80.146126
H   78.717880   58.408878   14.070743
H   90.958168   80.019615   45.660778
H   23.550373   60.459366   92.910034
H   29.497070   91.865356   69.992119
H   51.809258    9.279950   94.641914
H   23.424189   67.206459   24.404562
H   42.140892   70.031075    0.499489
H   17.177988   81.166824   56.457272
