100
TIME:    6.408, STEP:  6408
H   83.975662   34.375847   93.279312
H   23.501793   52.105145   82.150795
H   89.913757   34.920631   48.123722
H   82.552170   68.640656   88.918457
H   37.775177   86.386887   91.958771
H   28.648876   94.265831   13.351627
H   17.127361   94.035866   91.567024
H   16.230133   42.974941   19.832165
H   96.107002   70.190292   96.725533
H   99.734108    8.393370   58.616856
H    4.198471   24.082113   22.498844
H   11.264137   44.890446   36.800133
H   35.159042   74.085930   88.290459
H   37.794563   85.324623   44.892284
H   58.437569   97.638695   42.741451
H   43.872559   51.261940    1.120642
H    8.813863    5.811073   56.733864
H   38.099262   83.025879   77.390175
H   45.072079   47.177925    0.961725
H   19.875404   69.729042   52.619041
H   84.016922   18.280369   83.318382
H   76.721542   52.590698   73.577896
H    0.186184   42.506371   49.010513
H   23.662029   13.486544   31.159281
H    0.398237   77.973801   83.864418
H   17.335043   37.223190   87.837654
H    9.509510   76.105179   27.111723
H   91.853561   55.543480   78.588242
H   50.506828   30.475571   54.262238
H   46.703846   32.241997   92.806595
H   68.252449   96.673729    2.398427
H   70.362305   75.463898    6.043378
H   21.727673   99.643089   75.080200
H   48.855385   86.467819    1.793231
H   21.478882   74.494545   14.918210
H   29.673803   87.330544   99.279549
H   94.409798   69.860474   13.390542
H   99.139351   41.684551   74.635628
H   74.589722   41.796257   23.329329
H   59.630634   12.287491   42.202702
H   97.310745   76.055916   93.315407
H   60.182648   66.732117    7.100127
H   66.434540    1.927511   64.329430
H   70.170120   20.200827    7.276445
H    0.809615   79.064316    4.459777
H   95.409813   85.139633    9.194418
H   91.797165   73.326675   86.975426
H   56.581638   61.370300   65.068649
H   52.340210    1.740236   88.856216
H   60.277477   28.266356   35.484337
H   43.061588   50.992645   20.977013
H   16.551441   69.125656   53.390907
H   41.793995   59.164490   30.701666
H   28.297615    2.647717   14.583797
H   30.580887   20.171162   54.852726
H    1.576916    5.793129   74.483353
H    2.492225    4.646245   65.441566
H   48.902496   71.730934   48.500595
H   95.662811    9.523284   19.540794
H   36.156708   20.327969   81.351830
H   63.922230   80.569473   14.778461
H   71.485481   68.297318    5.411045
H    9.099131   70.012611   94.054657
H   83.065903   76.670197   53.164768
H   86.667450   49.048359   92.317802
H    7.693642   23.712273   25.074812
H   73.442551   69.901459   76.440201
H   37.721474   84.017311   72.542053
H   76.276772   89.348328   58.335369
H   60.207199   70.447197   88.239716
H   18.549461   59.400894   85.280769
H   45.597912   38.856049   25.785198
H   89.177231    1.341919   97.444885
H   89.144707   43.856640   22.411711
H   71.125114   37.776974   87.167618
H   77.148232   18.265049   64.750977
H   48.766201   71.172752    4.388388
H   33.039822   31.716486   68.330971
H   68.798363   34.696407   89.175255
H   85.270981   59.945656   68.866264
H   36.267204   95.575363   62.980137
H   22.148508   86.027664   50.910686
H   23.195053   14.282580   40.209229
H   91.009850   60.505638   78.144951
H   40.313225   48.061813   26.568542
H    3.807917   44.431175   86.774078
H   95.130547   37.438988   29.101629
H   59.087273   92.299072   29.136826
H   88.666611   37.384544   75.781624
H   99.784866   45.634457   53.286133
H   86.264397   19.445816   68.787033
H   52.426006   77.422318   55.621544
H   96.218750   19.790630   14.545054
H   66.574715    1.939109   58.880585
H   45.802162   75.740463   63.335117
H   23.196152   42.686188   36.467545
H   53.965294   35.421509   68.659363
H   25.908403    3.527442   50.239876
H    3.450851   64.473503    8.299316
H   37.236370   14.195644   80.437767
