100
TIME:    7.231, STEP:  7231
H   28.318888   58.903450   92.525833
H    0.774788   96.700218   34.042652
H    4.065022   94.131523   38.460354
H   82.690308   34.734100   43.807369
H   30.402960   52.353878   69.643234
H   15.883700   93.374214   94.856125
H   73.992371   49.610203   55.926769
H   51.543953   14.175851   44.267822
H   75.876091   91.062134   44.921535
H   77.255318   20.211443   90.840645
H   27.645020   57.197514   43.222847
H   79.854401   86.143417   78.218773
H   82.652794   24.302334    6.510024
H   97.045784   82.787910    7.521595
H   68.433723   24.124260    3.164870
H   10.780258   79.279236   32.805176
H   42.633156   60.243946   31.654810
H   55.699276   42.978470   48.861771
H   57.887501   81.702881   44.318264
H   97.703629   52.252552    8.652658
H   35.178925   36.348618   60.978580
H   55.623352   53.683243    3.491838
H   89.197929   35.812965   25.463423
H   47.194092   23.332003   70.037659
H   70.962349   12.705025   89.942482
H   13.512524   12.931889   10.413116
H   38.541653   41.893173   43.443378
H   22.411240   93.958351    5.789834
H   68.401955    5.145148   15.358950
H   78.262054   11.872629   58.232231
H    0.639575   70.472641   37.285301
H   22.326870   52.724506   29.854149
H   79.699348   39.427559   49.222542
H   83.628441   11.044675   67.120773
H    0.995920   12.181831   64.993011
H    1.216495   51.791916   96.692604
H   73.345383   39.721313   78.239899
H   65.119774   26.621250   32.712875
H   39.849972   23.864882   43.574432
H   82.113762   35.241169    6.954117
H   41.063538    4.297945   12.703970
H   90.824562   69.959518   49.114704
H   73.517242    6.864531   23.776836
H   17.620502   34.014610   87.744377
H   29.420448   46.592739   74.886177
H   84.785759    0.836975   12.537981
H   98.226852   18.084480   94.874397
H   56.628963   69.846939   15.990810
H   76.398262   33.578465   56.028122
H   77.555908   40.793880   77.941200
H   43.005077   71.537079   29.651440
H   56.555325   92.755432   99.366455
H   58.866573   63.936523   82.903938
H    9.240875   89.222290   50.899979
H   65.051956   92.294960   61.853802
H    2.601961    4.927413   46.466492
H   54.664776   80.898857   43.715782
H   87.620773   94.008354   27.302023
H   60.569550   44.302326   56.361259
H   81.847145   83.586868   57.943748
H   15.837418   42.296303   50.609573
H   42.275612   60.636948   68.175858
H   64.974480   13.852355   37.619080
H   39.579556   81.153397   30.817837
H   19.332813   83.316620   68.960487
H   57.135651   82.798973   73.737000
H    7.411512   98.357849   16.174818
H   80.871040   31.086603   11.886214
H   17.293297   30.212784    6.716062
H   76.882774   11.839508   86.506714
H   92.414833    3.404492   75.410194
H   77.811592   11.502376   86.075676
H   35.516968   60.636303   76.347473
H   71.023537   91.769592   73.512238
H   10.796220   38.962444   49.560932
H   96.600548   71.013206    9.375369
H   23.512054   99.938301   18.984098
H   71.705856   77.903587   13.779841
H    8.267001   32.278996   98.355141
H   44.909622   15.112504   97.964180
H   52.373619    4.090371   12.169753
H   83.904915   91.364807   82.058525
H   75.252815   28.045935   18.586693
H   47.630283   30.931835    2.977742
H    0.239988   96.579491   46.787971
H   84.869370   74.662308   43.925873
H   50.096928   77.599861   68.345329
H   72.323387   26.441690   20.603676
H    5.746259   91.562141   69.050545
H   27.020933   11.771854   82.707199
H   19.945057   63.883125   86.167282
H   13.319674   39.319305   71.303108
H   48.974476   44.485905   78.188911
H   46.114365   51.869225   14.374019
H   31.573872    2.019885   82.247437
H   91.172516   10.187953   93.958183
H   88.639824   82.652084   21.327614
H   24.319818   44.248814   33.719849
H   64.244896   68.027412   39.365559
H   88.356636   93.075516    1.154480
