100
TIME:    6.686, STEP:  6686
H   65.175369    8.882582   93.024796
H   15.824936   67.169960   99.678505
H   94.694427   54.921394   44.859547
H   82.598831   57.187408   73.681396
H   35.285156    8.669722   84.420837
H   24.336941   93.964653   40.883244
H    2.557736   12.807657   13.307062
H   94.379875   67.024902   94.307076
H   89.273232   43.461807   79.227516
H   92.141029   12.385569   69.501686
H   78.339600   35.268116   95.720360
H    0.652951   58.825230   17.012272
H   17.419235   57.274258   60.666924
H   24.030071   84.467751   66.048775
H   61.814156   72.806358   29.372967
H   32.695038   26.947121   78.044434
H   86.458687   24.198071   82.041298
H   44.044346   69.498322   67.752480
H   49.400982   58.841148   15.607135
H   12.386253   63.824322   71.546593
H   67.520004   90.604584   75.771965
H    3.373672   52.959747   49.903610
H   96.474464   40.245415   41.056870
H   97.831841   16.812227   10.512541
H   90.455147   55.927643   85.917519
H   16.067762   29.004425   61.694748
H   85.537849   64.550125   32.628368
H   68.395615   68.519585   87.776291
H   56.551598   55.698101   41.120697
H   57.363850   25.361565   14.906483
H   79.192421   21.602440   80.403969
H   87.915466   67.781738   80.307564
H   41.310047   79.302971    0.124634
H   60.601326   60.990707   90.081360
H   14.560162   53.446022   31.832926
H   53.840054    9.104737   98.405708
H   21.073738   59.679810   35.295872
H   87.647926   36.596340   94.254616
H   62.856297   35.738762   96.389603
H   33.447239   86.262421   64.076279
H   78.311081   85.596046   99.864967
H   36.754395   67.822296   21.292591
H   68.826996    3.595255   84.410789
H   52.418972   24.866964   34.457497
H   76.694206   68.094650   28.249655
H   91.821129   90.442062   10.323835
H   93.969040   88.444962   89.643608
H   56.596485   64.233612   82.269730
H   60.465652   78.715126   77.767776
H   66.113037   32.498631   16.046503
H   43.042500   24.153559   23.907135
H   30.065212   43.328697   35.142067
H   47.560917   60.776428   14.555769
H   21.860466   98.112137   26.850437
H    8.445366   44.534248   57.217609
H    1.923164    5.500700   65.019577
H   20.115786   96.624489   91.881599
H   28.202009   45.477547   41.340195
H   17.588097   21.271053   98.199257
H   17.812424   41.696758   73.444847
H   81.458427   67.640030   93.103226
H   61.618721   65.709732   92.832916
H   27.972597   51.042641   74.991364
H    2.154795   78.184570   45.616230
H   97.700745   26.844154   18.207125
H   90.616028    9.892256   41.512344
H   51.138412   79.513702   89.861710
H   18.518196   99.916115   85.832062
H   90.130959   69.373016   40.898861
H   65.839073   84.428642   87.654327
H    9.721294   40.486069   81.946602
H   22.676138   29.629822   46.139839
H   71.051407   87.589752   90.318420
H   83.023582   26.262833    5.894610
H   84.529655   38.173595    8.241909
H   83.719002   36.082516   46.046043
H   74.014252   47.110958    9.318781
H   46.100765   13.538698   83.682564
H   82.130791   33.879833   92.276115
H   71.637375   44.801918   44.916252
H   41.707497   98.451401   79.595825
H   43.008766   87.830490   27.654034
H   40.780029   18.931555   66.685104
H   10.136205   84.294456   52.753620
H   26.776773   30.671967   99.619774
H   97.409958   54.643654    6.079303
H   13.697618   17.226128   42.357704
H   63.558281   70.054321   26.254425
H   94.435654   21.906385   73.507942
H   75.207047   34.196056   63.222885
H   97.641289   34.456818   74.657883
H   72.995193   98.330856   60.917610
H   14.038850   28.132412   36.043221
H   93.443184   18.804651   77.625732
H   40.996040   50.839134   69.723480
H   46.157791   31.708067   22.108566
H   31.898710   51.375458   52.671478
H   25.371798   17.282921   44.659599
H   90.207573   65.673973   85.014549
H   54.503201    7.061791   53.657558
