100
TIME:    1.643, STEP:  1643
H    6.213278   71.349869   97.641800
H   55.567223   93.825569   81.640221
H    7.996550   92.108482    4.048532
H   81.752380   64.958519   50.105602
H   80.454849    4.451207   21.155830
H    2.538462   99.428108   41.457607
H   66.859184   72.281731   18.937599
H   90.749733   30.742344   57.340057
H   13.239922   28.325745   96.665474
H   29.940191   39.974403   72.029533
H   47.427170   32.351994   81.487076
H   93.130478    6.045822   75.978661
H   38.751122   62.303596   61.827248
H   73.729958    0.011668   82.273201
H    0.484213   23.267696   71.796158
H   35.463425   68.028313   96.657974
H   91.972733   90.651199   22.946466
H   36.254585   14.801756   42.586716
H   70.851784   47.280373   49.921032
H   48.251793   70.921494   28.195688
H   66.778687   92.651123   12.650837
H   19.889530   46.268509   79.356911
H   63.807610   81.259804   85.341461
H   66.389015   56.386936   85.050827
H   70.820915   55.868744   48.684532
H   39.125393   78.651733   35.174225
H   20.400692   74.180923   32.569805
H   93.910690   33.129391   21.080790
H   46.896423   98.158112   79.507133
H   63.993191   50.175797   14.002475
H   80.732704   69.380966   79.399567
H   69.497223    7.119748   47.163322
H   86.088455   48.272285   45.811371
H   47.522224   23.151466    2.534857
H   39.932487   34.722054   24.775917
H   15.407151   13.549696   14.991475
H   37.384201   44.366554   37.927189
H   96.083992   28.882557   38.383076
H   76.858170   45.434792   84.653244
H    8.441557   58.371845   67.303055
H   22.960579   12.558658   81.052902
H   83.957703   85.596519   79.991058
H   25.392958   73.352524   20.149261
H   74.442772   40.307144   41.377789
H   14.137825   67.064255   96.705643
H   56.890553   94.254494   89.842476
H   53.428638   14.370559   41.662544
H   56.327160   12.299612   70.237465
H   13.058141   96.376793   78.935074
H   60.348759   55.756908   68.750084
H   43.419270   11.022341   70.740387
H   84.980049   11.280588   66.203323
H   42.961739   31.535400    7.446278
H   38.644062   80.399834    4.318281
H    9.960144    2.538673   14.348152
H   95.621994   10.805233   36.695206
H    0.411815   42.139061   12.250496
H    3.716072   21.726559   71.235550
H   19.857109    8.188872   85.349594
H   50.596783   54.075230   16.878746
H   63.342449    2.165936   86.294579
H   40.597870   12.651855   21.013428
H   85.676605   95.112602   20.842140
H   55.862129   50.732002   82.533562
H   97.534828   29.620083   48.570957
H    0.413329   60.594643   43.332333
H   55.747757    5.166636   46.386852
H   66.872505   11.501809   44.747501
H   38.789558   31.730820   57.187622
H   63.667664   30.780771   98.273438
H   69.859581   83.610802   42.442234
H   38.494259   96.996933   76.915092
H   99.864426   37.036427   19.619289
H   94.030602   45.407715    5.560219
H   41.387146   30.981493   25.948772
H   64.503731   12.873095   85.376396
H   16.128359   84.143051   20.105150
H    9.171458   43.289230    5.175666
H   40.306618   48.689304   36.009865
H   18.949844   19.472261   79.375313
H   43.034260   46.279247   78.187080
H   64.600250   54.957596   49.391068
H   21.755268   34.679474   86.387573
H   63.195049   52.755230   13.360054
H   72.328873   46.114258   88.482101
H   13.475697   69.406792   55.878197
H   76.886971   83.893433    1.887612
H   82.404221   73.752090   78.665001
H   89.778755    2.693038   14.757504
H   21.074890   41.678581   82.950523
H   91.260841   62.147266   68.158890
H   99.852318   19.075129   64.825661
H   90.702492   76.860519   46.022263
H    6.029363   12.892304   37.597771
H   28.186279    2.558881   53.840660
H   29.626678   30.850142   82.585739
H   32.188339   61.968868   42.698868
H   12.897679   30.226837   29.748432
H   30.443264   43.932621    7.425290
H   41.277237   36.501026   39.441719
