100
TIME:    5.564, STEP:  5564
H   41.051430   11.774810   94.052017
H   46.810555    6.367754   28.933113
H   75.399780   74.200562   58.033665
H   82.410507    3.412689   35.180931
H   45.334808   18.736559   14.842619
H   41.739788   95.180199   29.767614
H   61.359371   37.045818   25.565126
H   82.566864   69.957809   97.325279
H   16.854195   51.337509   49.853592
H   22.790648   96.274162   25.569700
H   82.705307   90.122330    3.797220
H   43.479500    2.585353   96.877953
H   89.016586   25.124695   72.154716
H   79.585030   87.926064   80.663139
H   48.177925   73.028641   83.316315
H   77.807190   25.081375   71.180389
H   76.683296   49.985264   79.901215
H   20.050161   24.093246    6.649225
H   31.929634   11.768718   56.493763
H   42.612251   87.655800   95.155647
H   34.101067    2.302842    6.228195
H   95.806442   51.470276   45.452271
H   11.455962   49.370567   73.157547
H    2.081781    3.389864   93.841873
H   30.582825   44.907265   77.631264
H   21.182470   62.175125   67.203369
H   82.289276   11.187386   10.363882
H   63.066593   16.148399   50.690514
H   32.155083   53.901463   94.159576
H   14.342058   53.130791   25.710339
H   35.033394   20.990456   69.172966
H   17.071415   98.786713   84.176720
H   62.279102   61.393532   99.046013
H   13.193475   63.815331   37.347923
H   42.465958   38.324448   63.535431
H   56.306492   21.225098    1.933492
H   13.459348    0.768745   46.886700
H   34.021931   57.132214   15.078211
H   10.212951   60.186638    5.119652
H   39.126858   91.300072   75.799034
H   54.991501   47.096115   73.431129
H   31.559849   61.574753   64.196190
H   59.166828   96.865601    3.368161
H   24.063808    6.034455   24.754690
H   74.019234   12.366073   32.237408
H    6.302736   69.041611    5.765540
H   85.203415   27.427673   78.874901
H   56.536564   52.677368   12.846671
H   27.671600   71.638611   22.523277
H   42.571590   15.418989   94.511398
H   43.120121   32.475601   12.080537
H   75.532661   47.442120    8.794792
H   24.285786   54.270691   79.721214
H   47.840614   16.419624   77.340660
H   97.780540   46.207630   47.673008
H    0.525669    6.680935    3.215118
H   48.984436   29.000084   85.170082
H   11.748868   51.436684   70.239365
H   29.097647   73.861656   84.332115
H   91.852646   55.456593    5.357185
H   10.681721   19.820606   80.582390
H    1.440545   76.153152   43.601601
H   51.801083   27.606001   51.930267
H   25.109085   72.072601   76.078522
H   53.168602   16.456314   13.720065
H   59.540642   65.670158   75.170433
H   41.158722   40.724102   35.692886
H   96.022072   35.748997   32.193974
H   34.211300   49.992775   11.267409
H   43.111099   27.994774   90.016937
H   45.351067   16.826202   95.403206
H   15.190189   66.866608   63.993179
H   44.208496   43.087311   19.086235
H    7.725674   97.273888   72.559654
H   30.434504   36.572842   23.187195
H   57.197365   64.174492   21.543211
H   72.130791   44.295818   89.450356
H   93.387161   86.904259   21.718134
H   28.327168   37.175503   79.761131
H   26.659649    5.921405   41.577606
H   19.750635   86.843796   12.536506
H   58.804314   80.554199   21.512293
H   69.811333    0.169113   59.831776
H   32.944504   88.282394   55.230808
H   81.408257    0.852482    8.384985
H   23.234837   13.428313   28.164398
H   38.761711   98.804649   88.856445
H   45.513420   59.837673   37.887711
H   71.151962   84.377892   82.684456
H   74.406891   80.358078   23.117491
H   51.724480   73.870575   50.963299
H   89.978554   13.945460   39.542839
H   42.116516   94.466682   49.277241
H   85.006844   50.734570    1.971170
H   60.393410   51.341076   43.940220
H   53.485184   76.015533   80.060989
H   20.958197   86.987373   17.198654
H   27.288336   63.611816   66.996040
H   43.656860   60.834515   78.994026
H   84.812439   35.853352   61.743855
