100
TIME:    4.938, STEP:  4938
H   83.385902   69.181587   94.625137
H   64.099678   72.447815   89.462402
H   64.634674   29.163021   65.383034
H   82.305435   29.205482   69.495735
H   50.941833   68.559982   31.814220
H   51.449398   95.858391   67.773674
H   94.170113   94.774368   76.611038
H   31.769234   15.802207   54.803898
H   32.242470   11.524889   89.257317
H   39.896996   87.285728    1.054626
H   40.934296   64.933701   64.095352
H   67.373161   71.207115   41.436409
H   28.963028   62.979713   34.357422
H   10.580842   89.855568   33.024200
H   40.564980   28.945078   13.406590
H    2.976967   79.833450   23.144062
H   27.022652    8.581897   22.913969
H    6.663804   54.550426   28.348986
H   22.179428   85.508301   23.515474
H   59.476311    0.952009   52.534615
H   71.248802   64.624786   23.218819
H   35.791214   50.639252   98.761993
H   19.814613   54.461784   91.067551
H   60.247478   95.901093   40.334282
H   52.972565   94.550858   73.008095
H   24.036131   80.677826   26.071234
H   36.269447   37.210125   97.942909
H   15.887996   86.928864   29.996103
H   18.543480   97.106285   23.749912
H   90.338638   68.624138   75.945564
H   10.395827   64.854568   18.700096
H   77.545601   16.081772   42.128639
H   18.183033    7.195094   42.650993
H   86.743378   21.184387   63.721001
H   58.026169   85.645065   25.418167
H    1.889934   72.193932    3.902322
H   53.416916   23.695896   97.560532
H   59.893528   68.587929   70.901527
H   36.638302   73.826897   65.783386
H   98.089348   49.904694   26.545542
H   97.774918   25.618437   58.682842
H   87.821159   33.477539   34.790318
H   53.774723   93.111664   58.149826
H   64.034164   95.526978   63.546715
H   28.321115   37.062950   78.668358
H   14.380508   57.101612    3.221344
H   80.312790   93.382530   72.866692
H   56.503132   46.229767   74.113396
H    9.374741   23.484783   47.496078
H   29.442364    5.890867   38.293678
H   43.167881   92.911118    5.481297
H   45.109535    5.529487   49.892281
H   11.300271   50.640930   16.077215
H   62.335777   26.635490   49.716270
H   47.624329   91.345955   42.347767
H   99.744766    7.339426   24.525635
H    9.300443   47.062920   25.632454
H   58.361710   10.554319   86.363144
H   79.725975   47.411987   32.389748
H   33.161678    7.338392   23.162117
H   71.193420   48.931332   29.390633
H   23.656256   81.979874   71.926727
H    9.300725   70.322800   94.856964
H   82.123573   68.662537   93.071533
H   28.319422   66.455292   55.423634
H   97.997002   96.790581   38.156425
H   91.383148   19.082615    5.468304
H   39.264427   99.946060    2.267555
H    3.010099   94.973152   50.530769
H   30.430521   96.508789   91.335114
H   65.228783   59.418579    2.911845
H   66.805450   87.642212   18.158619
H   85.024200   74.051674   35.138374
H   21.504436   36.892963    9.754646
H    0.253035   35.679729   75.731781
H   42.396538   24.051805   63.663357
H   15.292990   98.552925   78.379585
H   63.976543   27.836300   87.146889
H   98.309212   39.014263   72.778618
H   57.356354   40.019611   95.508209
H    7.500996   80.367538   75.121742
H   11.828902   76.476456   73.864891
H   30.214212   89.700134    0.213269
H   89.876404   34.714767   12.407510
H   11.889285   40.010475   69.068703
H   37.644032   90.435249   84.692825
H   96.952568   44.320099   59.006439
H   35.439621    9.946623   44.390312
H   58.161240   19.232344   87.804329
H   29.752802    6.111412    0.740166
H   26.106010   40.069424   37.743328
H   43.660892   66.864090   27.617163
H    1.988948   75.686684    0.867667
H   24.504044   12.758451   59.761379
H   71.215828    7.412963   29.555309
H    1.780124    0.736070   12.394970
H   70.647179   51.062298   53.200150
H   24.991079   58.281799   77.016090
H   73.478210   58.136074   31.427811
H   45.928455   51.915043   22.047014
