100
TIME:    6.302, STEP:  6302
H   91.144119   44.096611   93.376358
H   26.428940   46.360836   75.467567
H   88.090912   27.294689   49.368336
H   82.534378   73.007721   94.728271
H   38.724609   77.890518   94.832947
H   30.292995   94.380669    2.854086
H   22.682835   86.878731   83.277687
H   24.561523   33.804913   29.565060
H   98.712685   80.381729    3.397744
H    2.629663    6.871239   54.466526
H   14.058334   19.816946   32.709259
H   15.310143   39.577183   44.345451
H   41.923141   80.495811   98.823174
H   43.043129   85.651344   36.825344
H   57.150093    7.107117   47.838787
H   48.134491   60.533058    9.919749
H   17.337898   98.800026   47.084267
H   35.832432   88.183868   81.064980
H   43.421490   42.730797   95.376862
H   22.730980   71.980507   45.402061
H   90.307114   28.833302   86.195793
H   66.559219   52.449982   82.604782
H    1.601570   43.368462   52.043198
H   33.511036   12.218477   39.032085
H    4.189258   86.379593   83.081581
H   17.818251   40.356964   97.805885
H   18.650021   80.511063   25.008253
H    0.797902   50.595757   75.084885
H   48.201988   20.858727   59.273041
H   42.639240   34.865471   84.379776
H   64.081093   87.168083   10.784752
H   63.669376   78.393066   15.856316
H   14.261156    7.398378   65.530884
H   44.376717   96.182114    6.258633
H   24.116913   82.520241    8.468904
H   20.459700   79.028267   99.612740
H   84.242622   73.742310    5.038327
H    3.520514   43.624660   67.155006
H   79.063538   44.105949   33.601295
H   69.614685   22.210915   33.862415
H    4.555028   72.418312   90.818092
H   69.115723   66.316437    1.688686
H   65.522308    1.291633   56.673279
H   76.939072   18.421652   96.912315
H   10.004307   83.246994   95.389023
H   96.778160   83.117844    8.763777
H   90.969040   67.562149   85.958061
H   56.575977   60.278534   58.509968
H   49.242020   10.518906   93.084183
H   58.052700   26.652563   42.896217
H   43.068867   61.226135   19.859772
H   11.398890   78.961258   60.349098
H   39.595097   58.549866   36.858334
H   30.752068    4.377358    9.906589
H   39.020714   10.881736   53.951008
H    1.444893    5.904631   78.091843
H   95.772026    7.705010   55.360115
H   56.795563   81.741219   51.230820
H   87.302307    5.044009   27.678093
H   43.151291   12.180158   84.366722
H   57.235767   85.499405   23.042759
H   75.247627   69.283951   10.207391
H    1.902702   77.245766    1.323395
H   75.787460   76.092773   56.042988
H   82.460510   57.514805   82.446617
H   14.205017   28.981865   18.807264
H   81.947006   66.236359   71.322647
H   45.043587   77.955177   67.474640
H   70.994240   96.964813   64.983704
H   58.060059   65.116142   88.462921
H   21.915741   66.613022   86.552071
H   54.337704   42.373962   18.024357
H   96.088516    6.584824    0.162219
H   91.478661   50.564938   28.709585
H   66.014030   37.625744   79.132217
H   74.642830   11.471432   71.883850
H   39.139248   80.346825    2.508427
H   28.059750   38.647972   62.477272
H   63.714817   35.007763   87.992912
H   90.469406   65.719887   77.998283
H   34.192848   94.478745   56.644657
H   14.194429   85.340256   59.778255
H   16.489990   12.510077   30.114029
H   83.716850   51.435081   87.826897
H   45.474449   54.692474   36.844086
H    6.247712   40.537209   79.413147
H   88.051048   45.146049   24.047155
H   57.382500    0.780920   30.235870
H   86.466904   43.286552   76.648567
H    9.156840   49.995861   49.497299
H   81.926445   13.722130   66.548508
H   44.583080   69.449997   53.602180
H   89.423920   16.609951    6.347911
H   56.330509   95.508247   51.733154
H   47.634712   85.234787   60.899265
H   14.440993   46.872101   41.942551
H   62.379173   29.338526   74.755463
H   26.113008   98.282425   52.367607
H    8.500361   64.015770   17.178207
H   30.652613   16.915760   90.648613
