100
TIME:    1.690, STEP:  1690
H    3.034946   67.039719   97.598770
H   54.259834   96.373650   84.604973
H    8.804434   95.489906    3.496764
H   81.760269   63.022179   47.529194
H   80.033875    8.218465   19.881611
H    1.809620   99.377190   46.112354
H   64.395729   75.455177   22.613060
H   87.055626   34.808300   53.024529
H   12.084572   23.806900   93.707176
H   28.655931   40.649254   73.869774
H   43.055344   34.243153   76.959625
H   91.336853    8.401613   72.633095
H   35.761627   59.460045   57.156006
H   71.402763   99.866798   85.849693
H    1.055948   19.069603   69.537094
H   33.573700   63.917526   92.756607
H   88.194000   93.759384   27.225599
H   37.258972   12.516068   40.957321
H   71.584007   49.252213   52.397038
H   46.985641   69.923203   31.395670
H   63.989639   87.972351   11.375183
H   24.396183   46.330544   75.355141
H   63.180092   80.877556   83.996780
H   62.022209   56.950626   81.560394
H   69.139885   52.141289   49.031281
H   38.909885   77.251114   30.768999
H   16.347824   72.227371   33.502476
H   89.944778   35.323193   22.634344
H   47.918381    2.422302   77.285362
H   65.795418   49.012558   17.738716
H   82.581551   73.595734   75.680359
H   72.464844    5.821280   42.812294
H   89.398880   44.833488   50.045502
H   49.508049   18.844185    0.554882
H   38.764229   31.169228   27.637756
H   19.493725   17.241831   14.829934
H   41.891930   42.645363   41.630619
H   94.141197   28.022320   41.699596
H   74.745407   44.431480   80.148743
H    4.014688   53.971691   71.000748
H   19.748764   14.171378   82.160202
H   79.733612   87.705696   82.199203
H   25.797796   73.634369   23.544132
H   71.441444   41.094948   45.973011
H   10.060932   65.209671    0.727526
H   56.284191   95.150948   90.033241
H   53.924915   16.906031   42.064156
H   56.329670   12.783518   73.145561
H   14.431867   92.484032   77.060410
H   61.334499   56.472279   65.462608
H   43.415684    6.484671   71.235947
H   87.264214    6.919329   63.117985
H   43.936722   31.807922    4.716576
H   37.555767   79.633186    6.392138
H    6.218435    6.658999   14.746984
H   95.680801   10.755838   35.095215
H    3.391354   40.782906   16.720648
H    0.216395   17.287857   70.024979
H   23.563766   10.174787   81.741547
H   47.495411   57.687939   15.541986
H   66.307205   99.980293   82.629875
H   38.929749   12.214296   18.886681
H   88.864395   91.907600   17.617775
H   59.089722   50.987671   81.257729
H   99.400169   25.866272   52.948162
H   97.526039   58.258125   46.111340
H   51.976913    6.791504   48.655956
H   63.625908   14.189916   46.994373
H   41.132172   28.353699   54.239723
H   64.619934   33.144806   98.174469
H   68.367165   80.412971   41.878544
H   34.619068   95.437103   80.356041
H   96.799988   34.711742   18.414097
H   92.996452   42.433281    2.766859
H   43.653023   31.048368   29.511818
H   65.614616   15.885359   82.213707
H   20.395658   80.069565   20.936522
H   11.379603   40.215828    7.771393
H   42.559586   48.551609   36.534111
H   16.644882   16.912527   75.326210
H   43.954021   46.765484   80.996208
H   68.126541   55.264542   45.461014
H   24.728985   35.464050   90.864105
H   66.428108   56.777081    9.067116
H   70.040405   43.174248   83.925964
H   12.393856   71.133003   59.142006
H   80.025993   80.476151    4.128812
H   83.160828   69.989136   78.176216
H   90.754097    0.076222   14.373014
H   16.919468   39.744751   84.630836
H   93.184273   64.685043   69.151443
H    3.329901   22.609846   65.721397
H   93.718163   78.269028   49.658279
H   10.572163   15.743207   40.766556
H   27.373554   98.348938   54.920708
H   33.508682   28.994303   80.158142
H   28.457829   64.666115   39.995880
H   13.070247   30.627014   28.996307
H   28.204460   44.135220    3.488379
H   44.196091   35.293682   34.914986
