100
TIME:    6.027, STEP:  6027
H    9.741230   69.315575   93.628128
H   34.023232   31.458151   58.128292
H   83.361832    7.510809   52.597286
H   82.488220   84.337372    9.801896
H   41.187759   55.848053    2.289348
H   34.558399   94.678596   75.620842
H   37.095249   68.310692   61.772327
H   46.175980   10.014611   54.815495
H    5.472771    6.821900   20.708364
H   10.141851    2.922384   43.699162
H   39.638168    8.751997   59.197563
H   25.806854   25.792774   63.920570
H   59.471512   97.125221   26.148613
H   56.659691   86.498970   15.896961
H   53.808586   31.671204   61.061665
H   59.191391   84.585487   32.747772
H   39.451698   80.609642   22.049932
H   29.951506    1.565306   90.598671
H   39.139301   31.193438   80.887497
H   30.139313   77.821571   26.678766
H    6.625984   56.211193   93.660774
H   40.194702   52.084915    6.023536
H    5.273557   45.605019   59.911011
H   59.063595    8.928682   59.456928
H   14.024549    8.187866   81.050636
H   19.071856   48.487038   23.665821
H   42.364067   91.941422   19.551138
H   24.001312   37.759682   65.995987
H   42.222450   95.908875   72.272766
H   32.094273   41.671654   62.517746
H   53.257095   62.507336   32.541878
H   46.305637   85.992325   41.314461
H   94.890495   27.517958   40.756714
H   32.757530   21.384026   17.843241
H   30.957207    3.324205   91.731064
H   96.554764   57.489342    0.477386
H   57.866005   83.813110   83.369423
H   14.886362   48.657963   47.749493
H   90.670135   50.098076   60.251152
H   95.517624   47.956097   12.225840
H   23.348660   62.981361   84.339211
H   92.291153   65.238022   87.648460
H   63.154919   99.642075   36.810722
H   94.500031   13.805868   70.023277
H   33.858387   94.098282   71.856918
H    0.328001   77.872635    7.646548
H   88.820602   52.607010   83.318672
H   56.561291   57.446121   41.494511
H   41.204262   33.293602    4.053502
H   52.282185   22.466146   62.126472
H   43.087749   87.775284   16.961269
H   98.034111    4.478518   78.401009
H   33.890408   56.955322   52.831043
H   37.119751    8.864635   97.772118
H   60.916313   86.782440   51.611645
H    1.102381    6.193904   87.453491
H   78.336952   15.640487   29.205406
H   77.272858    7.711538   58.313950
H   65.612320   93.424141   48.789009
H   61.297615   91.042938   92.188377
H   39.888813   98.289322   44.483074
H   85.007912   71.843613   22.650879
H   83.233833   96.011024   20.180969
H   56.903923   74.594742   63.510067
H   71.546280   79.478165   56.837406
H   31.097736   42.652977    2.546684
H    4.010618   56.729450   58.045975
H   64.039635   62.227940   54.328053
H   57.288532   16.724541   82.229950
H   52.489647   51.283646   89.041992
H   30.649014   85.323730   89.850258
H   77.012894   51.500626   97.890182
H   14.019470   20.186699    7.213806
H   97.533730   67.969017   45.049248
H   52.755924   37.233402   58.285660
H   68.142967   93.846733   90.388947
H   14.167129    4.165339   97.638481
H   15.139750   56.630646   47.289246
H   50.528362   35.815525   84.925514
H    3.955683   80.700203    1.689816
H   28.811266   91.633743   40.208271
H   93.555634   83.556747   82.782249
H   99.095009    7.911598    3.923894
H   64.796333   27.902794   12.944268
H   58.864418   71.893700   63.502335
H   12.577557   30.435101   60.316391
H   69.684425   65.140785   10.934134
H   52.959740   22.786669   33.087166
H   80.760117   58.598366   78.897713
H   33.470692   61.310825   39.667778
H   70.672325   98.872971   60.741009
H   24.235865   48.767090   48.363266
H   71.795822    8.358190   85.081741
H   29.753998   78.824287   33.190292
H   52.388969    9.867054   54.579838
H   91.727051   57.731781   56.146576
H   84.207634   13.557710   90.570816
H   26.643824   84.674255   57.887665
H   21.600494   62.830326   40.213066
H   13.572041   23.972664   17.140118
