100
TIME:    0.438, STEP:   438
H   87.702553   81.854530   98.745010
H   89.086433   28.492378    5.629340
H   87.289886    5.415662   18.197029
H   81.550125   14.604338   16.154646
H   91.247925    7.865152   53.829033
H   21.224380    0.736941   22.121904
H   30.015354   90.913078   24.704943
H   85.460358   26.494686   67.979225
H   42.861122   44.181534   72.517494
H   62.870735   22.674866   24.841272
H   59.513336   83.866501   97.559380
H   39.123745   45.645271   61.751640
H   15.401557   35.207901   81.595024
H   33.394642    3.726812   90.571632
H   85.829781   30.899557   29.717676
H   83.912750   73.427254   96.682114
H   88.852013   10.962631   13.233922
H   10.504306   73.400665   84.361618
H   52.084656   96.726532   86.438385
H   80.793129   96.348572   46.069267
H   38.285004   12.612633   45.354553
H    4.346070   44.678047   81.960945
H   79.896095   91.059990   19.818367
H   78.346573   41.934879   74.545822
H   13.918383   51.437824   39.792923
H   44.650639   14.558629   48.119362
H   24.309168   24.269497    8.657721
H   95.584221   76.883545   81.252640
H   20.695175   88.830986   36.467133
H   17.788473   79.999252   18.208298
H   33.331425   61.320229   74.752251
H   93.413055   40.409706   58.716225
H    1.209263   36.435616   37.255455
H   96.608345   33.582520   53.298759
H   69.884651   25.810867   51.398705
H   10.637338   18.892870   19.137236
H   21.809246   88.494972   42.977917
H   45.886200   50.937572   53.348904
H   31.028988   71.157982    0.145841
H   21.939072   71.179817   72.495842
H    5.310062   71.208260   52.659946
H   92.256218   31.515299   23.377981
H   15.013804   66.126495   33.110603
H   51.389908   20.111906   23.557220
H   18.662567   14.610545   93.587952
H   72.357475   71.438042   85.035912
H   40.704945   49.369343   31.365911
H   56.262806   99.892899   95.678925
H   77.832146   96.174728   27.001577
H   35.076046   37.416035   53.029655
H   43.511204   27.357779   58.035084
H   26.418398   23.095482   45.308693
H   17.964830   24.548401   77.432411
H   66.545258    0.055393   51.143879
H    5.889776   96.901886    4.122770
H   94.114273   12.071627   77.716248
H   24.019341   76.908577   97.644783
H   93.444519   35.523186    2.272715
H   24.821213   57.275299   77.858566
H   30.115204   61.455101   51.151817
H   87.329788   58.200401   80.245453
H   83.365662   23.868515   75.537659
H    3.941586   77.285072    3.509446
H   73.116829   44.177094   15.248037
H   49.707909   25.861504   36.351135
H   74.438362   20.498829   72.083839
H   52.427269   63.502888   88.208481
H   50.110176   42.587265   87.141533
H   78.732689   18.314430   32.761898
H   39.259132   70.174950    0.809716
H    8.123350   65.603111   56.894291
H   37.851994   36.989235   88.689949
H   78.433182   96.642403   50.518375
H   20.550232   21.661860   77.176964
H   83.289230   29.266920   34.601734
H   36.013485   35.644112   66.456558
H    6.722150   88.581657   98.784119
H   52.558365   22.080639   38.629597
H   82.547295   52.219479   22.572311
H   78.045151   85.100258   83.187134
H   19.453136   33.812969    6.167162
H   74.187263   47.088028   50.154434
H   45.509243   14.568091   71.617218
H   80.300507   49.641819   23.423683
H   31.003202   21.486267    5.293313
H   41.212246   25.142311   72.199272
H   96.407738   71.506752   44.428677
H   63.006104   70.226692   91.186440
H   64.772652   69.785057   24.617157
H   27.611053   91.263748   39.870159
H   41.947330   97.082886   42.711498
H   10.694384   28.447531   41.869362
H   13.386932   40.754684   52.799797
H   89.561928   39.800659   56.349735
H   49.019413   10.495632   26.151051
H   30.098618   78.435173   44.825752
H   27.835733   92.816460   11.999172
H    8.473346   19.966980   49.027573
H   87.846855   38.738338    8.363224
H   66.442764   67.454247   55.500473
