200
TIME:    0.989, STEP:   989
H   32.486172   59.989223   28.147013
H   34.639587   43.812702   20.304255
H    2.439252    1.921704   82.240471
H   43.089600   85.728249   24.913532
H    7.257785    2.712600   42.889683
H   65.252319   32.485958   43.380154
H   14.210898   54.772690   64.148842
H   19.673298   21.228130   98.486511
H   17.845383   76.277397   29.447371
H   84.494965   64.405411   66.528923
H   38.300095   10.594043   16.630775
H   33.875015   62.014729   48.430958
H   29.557453   11.866842   30.593834
H   69.002518   56.367008   78.358055
H   83.460526   77.710434   41.135693
H    7.468740   95.106125   38.165493
H   19.454943   42.794907   79.081177
H   18.777121   19.174650   30.185970
H   89.945992    2.585873   53.509800
H   92.439163   69.418724    8.435585
H   67.073853   14.147215   91.525719
H   73.354362   77.443596   41.711174
H   72.576126   57.095619   31.164434
H   24.472879   94.887909   89.237457
H   35.801720   42.827660   18.684025
H   18.041079   95.576897   82.218842
H   13.400766   73.825676   79.196838
H   11.700252    1.027347    2.702082
H   42.615028   33.763496   33.952549
H   59.202526   40.829720   72.716736
H   12.383613   82.741402   17.110548
H   18.305740   81.061020   12.044131
H    9.025742   25.101933   82.327934
H   71.637413   64.395081   51.382027
H   12.044044   58.852207   28.520943
H    8.580827   32.846985   88.049156
H    7.761817   58.262917   91.577919
H   95.866798   64.130020   81.491722
H   25.349617   19.580664   61.080585
H   82.899727   36.608418   34.438568
H   80.727173   70.234612   26.385174
H   50.620163   27.400394   17.621134
H   63.216003   70.575821   78.140350
H   35.612656   99.611870   45.535370
H   54.368839   99.147102   71.393105
H   30.519348   94.346085   50.833778
H   94.088760   89.516006   12.600215
H   71.881119   65.539177   20.721329
H   16.046844    0.329027   61.706345
H   35.313927   21.181581   74.025658
H   60.390686   61.015900   98.185661
H   92.507179   48.589703   79.644951
H   72.379967   73.003258   17.713717
H   11.258891   97.989777   92.794846
H   45.495316   59.727409   66.549942
H   95.704643   53.896641    3.174795
H    3.292994   19.579811   41.620121
H   75.591721   75.991219   91.783821
H   12.376514   88.946365   25.241535
H   25.780037   91.783363   53.148201
H   47.993748    0.763253   20.352385
H    3.398032   18.199209   54.808517
H   92.082069   40.721733   59.615273
H   42.274406   66.220932   20.390652
H   83.388649   87.245041   48.558216
H    9.358088   45.659691   46.326462
H   58.197365    7.362663    1.309736
H   93.147041   93.152824    2.100650
H   43.163925   15.974908   52.499588
H   40.925438   54.684570   50.942593
H   58.136585   89.546715   93.316086
H   11.090017    4.134600   39.521851
H    1.265878   38.611965   74.415184
H   32.267097   92.501297   82.378395
H   88.265244   12.996144   32.394768
H   72.245621   92.634262   57.983074
H   92.261795   57.833691   61.550385
H   98.813454   19.608822   22.355522
H   17.230747   63.055656   18.330597
H   56.988342   86.489708   58.740814
H   75.157394   17.443188   90.013626
H   59.571266   55.119484   64.702415
H    8.077503   21.882202   68.364929
H    0.249334   86.351585   18.262823
H   12.236179    7.244276   36.555996
H   45.768192   59.568008   12.191211
H   69.424095    4.344859    3.488494
H   69.102776   90.668076   39.692448
H   88.611618   73.880196   79.868103
H   19.692616   19.620525   46.625317
H    9.845828   41.358658   77.422981
H   78.838165   95.107040   14.710911
H   82.842018    8.414762   74.397911
H   26.441147   67.524460   89.670853
H   44.102997   46.794540   99.134781
H   38.254219   44.455395   93.845139
H   89.465828   88.371498   30.586823
H    0.362186   42.501461   58.604916
H   20.046089   62.275002   55.535595
H   80.227585   10.097537   27.433268
H   43.284023    1.135538    4.209410
H   18.423023   87.988258   61.733078
H   38.705467    9.796900   40.969002
H   57.865700   69.322372   19.906881
H   24.345860   17.629650   49.370949
H   17.076122   90.102425    8.823454
H   87.082001   36.972118   49.853676
H   60.337296   63.032177   89.779701
H   91.831284   30.635151   35.350559
H   28.427282   17.617292    9.203062
H   57.049053   89.558060    1.322827
H   16.067812   82.180115   99.042786
H   44.085171   88.966286   77.643570
H   60.686974    3.249939   55.640491
H   38.855400   13.157530    0.510212
H   83.471771   83.887505   12.724069
H    1.779632   18.989582   92.911728
H   36.971027   63.863037   19.006737
H   47.306507   85.834251   46.523018
H   90.548798   61.623775   77.284760
H   48.371895   26.736691   62.976532
H   85.972542    9.736767   70.219292
H   50.293953   90.232925   46.249146
H   93.042458   40.366428   85.064964
H   54.504433   90.408005   68.041138
H   75.161568   82.846062   11.070257
H   76.769066   52.687149   42.128387
H   59.045441   93.444389   41.328434
H    1.685134   25.371620   67.821304
H    4.048863   20.599264   79.261902
H   78.843933   58.442230   32.034855
H   52.950775   93.480118   26.990246
H   89.991982   19.034821    2.947677
H   64.194008   32.206436   58.925037
H   41.427120   87.826981   21.998955
H   42.409050    0.665578   72.647064
H   70.132744   88.473137   92.625229
H   97.607063   40.834702   71.363815
H   65.890823   54.808159   71.372940
H   43.853558   73.168564   74.645432
H   87.698509   41.042446   39.104752
H   22.757891   63.768490   63.707291
H   30.927742   70.545662   74.120811
H   23.392296   99.415039   90.536140
H   75.508461   44.926506   73.560532
H   73.384598   74.879333   93.973366
H   62.445946   93.497719   41.918915
H   22.200546   45.538055   64.527733
H   85.208588   33.520206   90.498573
H   33.337967   96.852127   61.967720
H   49.821156   74.030243   45.689781
H   65.316544   86.384094   24.680363
H   10.970996    3.832232   77.172218
H   29.709135   18.335043   57.442513
H   43.313343   73.660858   74.302910
H   85.736893   45.386089   77.105965
H   67.151443   83.346565   89.624557
H   56.694881   24.642479   27.271677
H   78.101196   98.911865   74.827332
H   55.282341   26.382854    6.984049
H   61.313259   53.980118   63.501072
H    8.436630   19.174784   29.055256
H   97.460091    1.913662   36.920616
H   38.767693   42.183022   39.154560
H   51.782593   47.503231   17.183884
H   24.818277   40.607323   58.207443
H   62.002396   85.452400   60.161880
H   24.286514   65.010399   78.984848
H    4.251224   25.734440   35.088322
H   60.653736    4.807442   81.968872
H   65.056091   14.541165   35.913216
H   20.287415   37.626621   59.758167
H   52.144703   45.268982   69.349258
H   62.002247   56.624134   91.616814
H   36.625641   89.402130   64.013474
H   24.026451   51.714008   24.024235
H   27.723282   76.320335   18.238468
H    8.368287    9.915161   74.457565
H   56.445717    3.967243   60.375824
H   50.672215   62.489571   96.950958
H   67.743217   12.030749   24.305246
H   34.334934   31.020351   96.959648
H   31.147247   89.375648   20.906456
H   67.791771   26.606232    4.745084
H   95.208900   55.847923   75.311050
H   14.940288   42.543915   87.702858
H   57.432587   91.695374   15.861221
H   54.437370   98.950996   51.735363
H   84.926888   64.513039   75.103607
H   63.233883   54.198933   75.166092
H   83.599525    6.243817   73.952766
H   41.512775    5.284169   15.084238
H   20.737568   35.343273   74.965576
H   22.018642   93.423241   48.407913
H   59.190624   20.800764   19.366228
H   77.156754   12.221345   19.304708
H   14.439965    5.983328   28.747358
H    7.141559   82.520126   25.843372
H    1.925261   13.707657   44.519157
H    0.195689    9.616794   87.342842
