100
TIME:    7.926, STEP:  7926
H   81.319328   95.169334   91.889542
H   81.580093   34.362484   77.865555
H   16.011614   44.131760   30.300468
H   82.806961    6.098583    5.710928
H   24.175257    8.061101   50.798401
H    5.105187   92.621269   63.685349
H   37.568531   96.538330   10.276691
H   96.918320   74.301048   80.455040
H   58.791664   24.240612    1.172979
H   58.272621   30.190615   18.054314
H   62.997818   85.162521   76.276550
H   53.329514   20.979778   28.747284
H   38.335091   82.235428   37.442921
H   62.633018   80.645729   60.413326
H   76.875191   62.043442   69.738800
H   82.835571   18.492188   75.113556
H   86.745186    6.214957   94.923401
H   70.559647    9.159845   24.772038
H   68.712067   10.857434   80.933990
H   78.975449   37.495892   55.971535
H   93.936653   67.159790   42.117840
H   22.253679   54.605865   44.306152
H   79.918678   30.161440    5.577357
H   82.618530   31.646212   18.419827
H   46.104561   57.589729   95.075233
H   10.235622   92.444992   45.010796
H   78.611588   13.001843   57.234997
H   63.767776   26.398581   28.763197
H   83.513878   68.200729   82.506187
H    4.911772   94.670639   13.482975
H   27.992868   32.795692   82.299187
H   66.209770   33.524410   65.514549
H   28.653353   88.578835   11.833631
H   12.993888   47.352058   37.840759
H   83.699348   59.560600    7.275345
H   61.631275    6.226979   94.508003
H   40.005535   14.267805   33.003017
H   36.396309   13.900942   81.756966
H   10.511880    8.723795   76.224174
H   16.653187   70.178467   61.636856
H   93.566055   28.143072   29.077604
H   32.253929   72.684967   84.596336
H   79.498383   11.033566   73.975990
H   73.240891   45.679955   55.696964
H   69.133125   19.173878   34.359650
H   75.814049   14.090690   15.361525
H    3.658767   55.881172    1.545844
H   56.671383   77.005219   58.993511
H   96.717171   76.018318   28.302074
H   92.148193   51.372227   29.346100
H   42.957355    4.439051   36.978546
H   90.331802   28.264502   53.744354
H   73.280464   67.966370   42.541847
H   93.145752   77.885696   81.569229
H    9.714737   53.202248   67.762634
H    3.467582    4.196341   22.807053
H   98.726837   60.845070    9.816045
H   35.869064   28.374739    9.398860
H   15.380898   73.670738    3.006775
H   35.984375   37.007130   38.176292
H   59.678875    9.976437   96.423317
H   17.608711   54.167984   36.727852
H   12.156268   66.427032   89.960846
H   87.304131   84.939331   11.946776
H   46.920135   27.807531   33.683243
H   14.441582   48.248344   14.831296
H   51.650879   22.385319   49.729839
H   32.862846   70.833672   45.111237
H   51.934067   80.274529   63.129349
H   90.997688   46.745922   85.032684
H   70.346123   56.117340   67.074776
H   20.580849   88.425194   37.018848
H   90.200729   26.260210   58.529552
H   55.723598   47.782597   32.216919
H   44.274078   39.985813    2.256428
H   13.030873   15.554653   62.608810
H   86.632530   39.785408   31.309595
H    4.357776   32.460964   52.164051
H   41.593079   30.237560    6.110464
H   10.827054   77.252495   38.089149
H   65.979652   11.280465   53.709106
H   36.057266   95.871872   23.915375
H   19.211397   39.668858   84.775253
H   95.445778   90.403931   39.499325
H   66.399887   53.100903   79.416252
H   68.877243    0.188221   92.188583
H   96.514397   27.067711    1.485529
H   83.500908   70.828552   13.397675
H   20.171413   52.865013   63.366341
H   65.574890   83.178970    7.553365
H   48.387287    1.413548    0.844437
H   64.742638   91.590652   84.548576
H   93.525482   65.340019   31.934328
H   13.283525   94.034142   61.236782
H   19.555916   39.767143   98.218353
H   48.576706   82.743225   58.060738
H   33.473351   22.535992   81.357018
H   22.978304   78.637321   19.766832
H   31.136528   71.028587   81.151924
H   31.525606   75.238144   34.203571
