100
TIME:    6.953, STEP:  6953
H   47.118973   84.397530   92.780350
H    8.451839   81.637077   16.513760
H   99.285934   74.130760   41.724529
H   82.643646   46.187347   59.046551
H   32.893661   30.070951   77.181168
H   20.195621   93.675392   67.325912
H   88.563446   30.837482   34.186810
H   73.394203   90.125031   69.793236
H   82.709862   17.790924   62.421673
H   84.848396   16.219774   79.955818
H   53.503906   46.011509   70.000587
H   90.463501   72.208633   98.007439
H    0.381358   41.126575   34.136406
H   10.810446   83.644783   86.366295
H   65.057137   48.956596   16.533451
H   21.958839    3.594128   55.881348
H   64.988197   41.857243    6.347374
H   49.754192   56.506027   58.497345
H   53.558598   70.041779   29.672955
H    5.193436   58.155216   89.725212
H   51.675842   64.025177   68.524147
H   28.971222   53.314194   27.166077
H   92.909630   38.073921   33.417938
H   73.024666   20.006319   90.683197
H   80.905464   34.752525   87.889381
H   14.823284   21.126263   36.574539
H   62.514996   53.450348   37.926731
H   45.867500   80.982246   96.600784
H   62.357185   79.922676   28.499430
H   67.602051   18.753380   36.131706
H   89.699516   45.544312   59.279778
H    4.773999   60.404545   55.590019
H   60.118114   59.767677   24.178106
H   71.882500   36.521683   78.832779
H    7.914804   33.230354   48.078384
H   77.050179   30.017925   97.566444
H   46.681908   49.901978   56.334507
H   76.611198   31.709461   13.096007
H   51.585308   29.921316   70.515015
H    8.298916   61.267612   85.082321
H   60.063202   94.758690    6.154939
H   14.253119   68.869339   34.923283
H   71.124786    5.196917    3.697271
H   35.370914   29.348471   60.562271
H   53.533890   57.560284   51.097355
H   88.374443   95.534683   11.408564
H   96.054977    2.965214   92.206215
H   56.611996   66.983627   98.790192
H   68.270699   56.601612   67.118088
H   71.718994   36.562542   97.377785
H   43.024166   98.375854   26.721317
H   43.043400   18.552078   17.615303
H   53.099651   62.324585   99.048775
H   15.678024   93.756927   38.632278
H   87.186417   67.933479   59.488918
H    2.255712    5.219842   55.930267
H   37.041622   88.920372   17.275749
H    8.321239   20.262487   34.463120
H   38.645065   32.554264   77.702477
H    0.193535   62.220020   65.850731
H   98.300743   55.223625   72.284592
H   52.142372   63.224533   80.753220
H   46.100063   32.823280   56.682373
H   20.489330   79.639023   38.366375
H    8.298457    5.519284   43.071903
H   74.213715   96.619225   57.299469
H   29.716703   88.745605    2.752341
H    0.074321   15.186740   98.596207
H    3.437387   50.188095   24.152287
H   71.249474   97.856865   87.092102
H    1.242423   22.319672   78.744362
H    0.688452   20.753250   65.701622
H   53.642792   74.384964   83.473938
H   77.144661    9.364498   90.030365
H   97.403801   38.554523   28.483040
H   90.029778   53.195759   28.081091
H   98.263275   24.000645   14.053900
H   58.644909   96.080315   98.426720
H   94.935677   33.095570   95.254280
H   58.543228   30.257271   21.913902
H   46.932526    1.213917   95.554062
H   63.043137   89.561981    5.316811
H   57.669197   23.396765   92.111542
H   28.505287    7.142155   28.368114
H   13.776030   13.970145   73.737038
H   91.266220   64.451950   24.620789
H   31.529940   97.812721   55.089256
H   67.852379   48.688297   23.486076
H   99.976425    7.040718   71.324226
H   51.600658   23.210255   72.768326
H    8.568165   48.873009   80.296432
H   92.750488   18.411457   66.004921
H   31.154072   36.144123   56.690742
H   19.247513   35.003258   95.629166
H   36.380089   26.922150   75.859070
H   68.210876   21.165323    8.317465
H   10.706150   66.698135   37.316208
H   24.856424   30.494198   39.300125
H   77.488243   66.826942   62.651707
H   71.087685    0.210421   27.935749
