100
TIME:    4.336, STEP:  4336
H   24.096058   24.387939   95.176285
H   80.725960   39.825668   51.505203
H   54.286598   85.853539   72.446907
H   82.204391   54.007378    2.491333
H   56.333893   20.307024   48.137344
H   60.786755   96.510582    8.154358
H   25.720989   54.126125   29.533854
H   79.085243   63.719906   10.076200
H   47.040779   69.404648   27.150835
H   56.348747   78.641899   77.483704
H   96.930878   40.710773   22.084358
H   90.346825   41.031792   84.288124
H   67.378006   99.383003   94.175293
H   40.387291   91.711098   87.211380
H   33.243904   82.718567   42.345051
H   27.183716   32.486748   73.115173
H   75.431770   68.762253   68.111534
H   93.793175   83.840874   49.219097
H   12.803032   60.255882   91.800232
H   75.697136   13.736322   11.547617
H    6.972321   24.554714   39.556984
H   78.076889   49.840088   50.027817
H   27.852180   59.357811    8.291465
H   16.180153   88.685181   85.043961
H   74.504059   42.293488   68.562172
H   26.780386   98.470703   82.680428
H   88.180809   62.236813   86.001381
H   66.681793   58.829529   10.095428
H    5.452802   42.487576   52.206825
H   67.254745   83.523491   28.087780
H   86.704201   10.873405   66.328423
H   39.534801   32.712646   97.858833
H   75.780006   51.239677   88.418076
H   61.307922   76.354248   89.082970
H   72.989822   31.151878   88.760849
H   49.558521   25.043262    5.796302
H   95.678085   45.742661   50.125111
H   84.777077   79.601692   28.421093
H   62.050793   86.944206   24.121458
H   54.790077    6.261050   79.182312
H   38.916397    4.964100   44.499981
H   41.926163    6.459176    6.510644
H   48.589344   89.501648   14.668005
H    2.476577   85.436859    4.686223
H   80.539360   60.812813   27.154222
H   22.147335   45.619373    0.774127
H   75.609665   60.644371   67.088829
H   56.470982   40.029358   36.865013
H   91.776962   73.341522   71.510895
H   16.816494   96.729683   80.398537
H   43.213810   51.030861   99.134903
H   15.854059   61.391811   89.411194
H   98.813393   47.150330   51.041882
H   76.279259   36.459694   23.151730
H   95.555786   38.584980   37.226688
H   98.991531    7.972672   45.019135
H   71.134323   64.433250   68.377113
H    3.188304   67.405937    1.868935
H   32.247696   21.975628   78.606606
H   72.886658   61.068615   40.284431
H   33.219360   76.927147   76.326637
H   45.021507   87.583206   99.162598
H   68.432594   11.401984   36.137932
H   40.784935   65.383209    9.415699
H    4.424796   14.534508   99.361443
H   34.977669   26.717293    2.561884
H   39.683487   98.270386   76.404099
H   80.848503   65.517715   73.488472
H   73.008926   38.229019   88.286011
H   18.234087   66.232422   92.602753
H   84.344414    0.378031   10.133812
H   16.444401    7.621539   74.084221
H   24.276419    3.831417   50.575096
H   34.757839   74.989708   45.523277
H   71.225960   34.820858   30.096670
H   28.163157   85.469933    4.172328
H   60.636543   50.731297   67.733253
H   35.693493   67.201393   53.902115
H   69.438271   40.782528   66.063805
H   86.879486   72.807060   47.370903
H   95.722275   74.139572   39.141003
H   66.661446   72.544937   24.204111
H   92.134712   79.634033   42.882641
H   48.459396   83.199776   67.389420
H   41.202560   77.665962   27.425735
H   51.500797   68.325050   42.888290
H   56.746361   88.090393   30.300840
H   25.750093   58.143562   50.650429
H   45.668564   52.750420   92.727913
H   82.978134   30.880898   79.217957
H    1.469569    7.563782   25.030191
H   99.116516   21.590240   16.147249
H   63.399513   57.619858   54.314068
H   66.319565   76.244034   19.173235
H   81.623329   61.338142   15.723781
H   52.057419   24.507202   43.489006
H   18.431164   16.514538   87.821396
H   22.781897   53.156128   86.651985
H    2.156207   55.541088   81.851585
H    8.537462   67.361946   80.039841
