100
TIME:    3.235, STEP:  3235
H   98.552887   25.355247   96.184280
H   11.282597   80.141907   82.062851
H   35.361481    6.643225   85.366051
H   82.019592   99.367180   62.843403
H   66.195450   32.057018   77.990814
H   77.857063   97.703377   99.118370
H   83.423622   79.780678   43.434151
H   65.621674   68.469650   11.166418
H   74.105461   75.261292   96.454704
H   86.437416   62.833168   34.369316
H   99.343216   96.409973   28.138231
H   32.369881   85.844635   62.658150
H   37.484085   65.985367    3.596725
H   94.903053   95.104683    3.424080
H   19.850552   81.064224   95.268257
H   71.451981   28.784271   64.508156
H   63.967690   95.941513   67.883163
H   70.273277   37.382713   87.391785
H   95.653908   14.064487   33.794460
H    5.364281   37.116703   36.586449
H   72.307236   34.163025   69.437180
H   72.522949   48.378494   43.788132
H   42.552116   68.312172   39.793976
H   18.474991   75.480438   66.815453
H   13.882306   29.607651   60.431007
H   31.825502   31.217768   85.954521
H   83.121460    8.001092   64.161476
H   59.581081    7.438553   73.705040
H   81.512512   42.596237    4.252707
H   25.037224   10.773782   40.561432
H   43.373188   12.144572   53.436043
H   70.017097   63.128914   99.783928
H   98.225922   31.793766   89.231300
H   14.787427   77.254341   35.464813
H    0.356941   14.379079   21.717636
H   53.825039   38.611149    9.519704
H   90.077644   86.062485   63.370663
H   30.283211   99.744804   50.725613
H    8.521037   10.932585   30.816332
H   58.491810    9.333026   92.557228
H   14.162584   67.182068   18.560896
H   40.877800   57.048454   54.784027
H   39.105785   82.899277   35.141254
H   72.782578   66.990540   97.035362
H   76.042717    4.256149   32.939022
H   36.351673   24.619465   96.304146
H   67.008102    0.767347   56.515732
H   56.412182   28.690634   68.741402
H   59.589455   64.525688   15.428071
H   93.727287   79.980156   57.403217
H   43.297810   57.325241   87.526154
H   62.347538   63.556374   61.691555
H   75.982292   40.766357   14.985119
H    1.780964   54.427216   74.568329
H   83.217514   42.091446   27.862585
H   97.613937    9.131842   82.499771
H    1.337729   96.201912   63.662865
H   85.171623   71.381729   30.230404
H   45.413780   75.455200   63.131725
H   45.541534   76.441330   71.599495
H   63.767006   28.130100   62.168560
H   84.098137   97.831161   48.982101
H   93.684303   86.532280   11.636826
H   65.182426   59.392097   39.311169
H   60.727039    2.469367   96.830177
H    2.614120   81.451454   37.462250
H   28.018768   60.202587   23.248434
H   56.902214    2.549707   20.854307
H   18.133347   17.339851   57.340229
H   95.927307   10.853209   94.921143
H   19.306419   75.290245   23.342754
H    7.227083   44.161850   93.473145
H   96.062958   58.288380   78.802971
H   58.999813   44.662582   10.942879
H   18.144354   33.250065   46.633213
H    2.132590   14.905413   78.254517
H   60.672886   46.158722   48.262135
H   83.966507   39.191875   93.096191
H   16.643637   44.016514   53.776070
H   40.874916   32.768375   42.223007
H   74.184769   62.749218   73.337250
H   84.050079   65.354568   16.268789
H   22.477209   61.254913   38.017582
H   72.712128   88.984711   67.948700
H   94.811127   46.534077   34.155373
H   76.839233   27.880554   66.431412
H   83.213051   68.142067   77.800552
H    8.030371   46.292374   62.099579
H   22.818977   14.052837    1.733237
H   80.321381   76.179642   39.860878
H   56.412140   48.111721    1.779042
H   17.649633   38.795837   95.166359
H   92.824478   24.582800   69.171959
H   59.903706    9.458885   44.937714
H    0.657766   59.958973   90.424400
H   61.119324   67.984688    0.356769
H    5.823569   53.330547   51.141914
H   18.741514   43.781769    4.273603
H   54.605461   50.795109   74.072212
H   40.148800   95.619423   86.101898
