100
TIME:    9.078, STEP:  9078
H    3.414340   89.525887   90.834854
H   49.763687   96.786575   50.502628
H   35.813374   27.011211   16.778496
H   83.000320   58.637077   42.566788
H   13.852503    0.398984   19.563824
H   87.243896   91.373222   77.771118
H   77.191246   74.328728    0.364587
H    6.373398   73.963669   74.682472
H   30.473305   13.479447   28.659052
H   26.807051   46.731632   63.161140
H   55.841583   31.513962   65.309593
H    9.357834   78.723915   46.746773
H   64.875717   12.509388   22.961102
H    5.593637   77.094948   48.080593
H   90.867378   59.141121   14.340431
H   36.517212   17.734032   79.487366
H   94.108162   82.409721   99.794502
H   95.192520   53.103416   84.837967
H   86.659332   59.188488   41.625340
H   47.937031   13.032522   34.405022
H   25.575325   52.474365   10.852055
H   32.697048   56.135162   46.202713
H   64.537819   20.796694   72.617996
H   75.581360   45.427460   32.862629
H    4.903735   66.230667    3.581363
H    4.802586   58.484055   36.601658
H   79.273338   65.117386   80.089157
H   66.565430   80.170059   66.845177
H    8.563188   72.719231   28.049477
H   49.083458   66.158920    5.063918
H   73.333443   36.097698   91.156631
H   38.947681    1.698445   58.868141
H    9.798416    4.293122   15.614888
H   61.669296   41.778107   89.310310
H   55.029427   72.338020   77.366180
H   61.772449   96.459869   90.886909
H   50.496895   72.078865   23.776083
H   88.781639   92.820320   63.049088
H   61.888828   83.623741   64.586746
H    8.147676   62.332298   52.273415
H   14.834593   67.668304   56.218227
H   35.169586   77.202545   43.408527
H   89.412445   17.944584   57.185223
H   99.684731   65.023354   68.331978
H   69.205719   73.730675   32.940914
H   60.944763   36.059765   20.041700
H   12.665071   18.530939   12.608974
H   56.741695   88.870453   30.272343
H   30.389175   80.610085   82.349426
H   16.331205   68.908867   48.799541
H   42.878254   93.220818   49.125031
H   46.320171   21.367630   78.121773
H   97.169136   74.646057   75.637405
H   66.462158   59.092384   32.402412
H   17.991035   54.158020   77.553650
H    4.902397    2.984549   83.590240
H   71.756699   27.604836   19.380926
H   50.089050   19.582148   79.726219
H    6.241167   22.346758   14.567030
H   59.963154   25.553280    5.410667
H   32.348347   56.400784    6.604624
H   76.721947   43.445328   84.604576
H   90.366058   87.816307   10.964752
H   66.411133   91.214722   80.672501
H   92.644119   35.799030   40.963596
H   43.672920   90.979424   82.946571
H   59.223648   62.209621    5.347384
H   53.286240   36.718513    0.183502
H    9.347263   97.499161   90.876038
H   14.394454    4.609959   82.589325
H   33.758778   77.732460   53.258369
H   25.716269   50.175194   21.459904
H   15.089375   69.274101   28.989513
H   30.367153   74.872475   63.769630
H   99.768219   41.682102   89.601791
H   40.267937   89.387566   85.094925
H   91.258621   40.076748   51.744019
H   58.473881   57.138695   15.793181
H   96.837563   26.853771   18.967173
H   54.331505   14.497416   38.843346
H   88.532387   23.198435   22.563103
H   22.502201    3.346014   27.538805
H   92.077354   58.934483   94.485374
H   74.700218   88.983131   34.282200
H   10.308090   81.036606   67.743378
H   42.362255   42.504257   72.187042
H   73.453941   43.307610   56.417274
H    2.028100   78.644569    1.453254
H   44.079838   88.724113   53.944466
H   63.722736   35.783112   48.732292
H   95.531822   63.614239   25.172874
H   49.978970   78.231934    6.501284
H   67.370819   99.898613   21.020258
H   24.619055   63.924671   38.913128
H   99.636002   36.577908   24.688234
H   43.727188   37.251038   98.558197
H   42.033104   88.646690   15.103973
H   20.754671   35.640026   96.637779
H   76.258110   76.003197   84.659782
H    3.081887   45.677189   23.227222
