100
TIME:    5.654, STEP:  5654
H   34.965004    3.521549   93.969620
H   44.324898   11.244855   34.608051
H   76.947479   80.675629   56.976917
H   82.425613   99.704498   30.247505
H   44.528687   25.950457   12.402452
H   40.343838   95.082695   38.680874
H   56.642803   43.123318   32.603245
H   75.493042   77.744370   89.062187
H   14.641823   42.684402   44.188080
H   20.331427   97.566429   29.094252
H   74.333725   93.743698   95.127800
H   40.044212    7.096443   90.471550
H   83.273483   19.681999   63.211845
H   75.128700   87.648659   87.511742
H   49.272438   64.989395   78.990448
H   74.188568   17.209671   63.709686
H   69.446053   55.937794   88.094269
H   21.974829   19.714165    3.529451
H   33.331097   15.544581   61.235050
H   40.187706   85.744179    1.283259
H   28.760338   93.343323    3.785454
H    4.434830   51.589752   37.787933
H   10.254161   48.638603   70.582626
H   93.719719    4.466525   87.158066
H   27.364174   37.769585   78.295937
H   20.772200   59.514374   58.740204
H   74.528809    7.446039   12.149675
H   55.472980   20.349297   53.665749
H   34.112022   62.067051   89.905121
H   17.792877   50.903313   32.864883
H   38.575798   29.060944   62.052452
H   22.754093   96.299683   75.844963
H   68.618401   54.808601    7.153927
H   16.996334   55.567345   33.556267
H   40.228867   31.521139   69.016174
H   64.130127   28.274544    1.650443
H   22.091511   97.472778   53.978374
H   30.302372   55.484951   21.429020
H    6.413877   58.225578   96.398048
H   30.650164   82.874931   82.879723
H   48.840530   50.183960   75.551491
H   23.725811   63.775734   68.604607
H   59.942051   97.405304    9.868867
H   18.317272    7.545161   33.554337
H   66.212074    8.815257   39.938824
H    5.141361   70.758224    6.131178
H   85.906540   32.322403   79.738701
H   56.541370   53.604340   18.415365
H   30.302139   64.184387   18.933151
H   44.459179   16.788847   88.216232
H   43.113361   23.786463   13.029309
H   79.906593   39.090450    2.886274
H   26.152775   54.792542   74.494469
H   45.756645   14.951013   81.312218
H   90.614708   54.095127   48.438618
H    0.637775    6.586264    0.151294
H   54.689774   26.403191   93.729805
H    5.047379   42.937386   67.921249
H   36.195503   77.664299   77.423088
H   85.913162   62.374546    2.797371
H   16.359089   15.635174   73.564873
H   98.246407   75.315445   39.529106
H   57.911541   21.464300   45.758698
H   31.289238   72.562866   73.635437
H   56.741219    9.268166   22.101603
H   54.011772   61.195976   80.491936
H   33.937958   43.835293   40.037979
H   89.805183   40.896091   36.496494
H   38.697155   43.525948    5.622668
H   44.934143   32.521523   89.827423
H   42.493248   10.702549   94.323799
H    7.769437   63.879700   70.582230
H   38.340424   38.635788   16.778419
H    5.744701   91.577477   67.212059
H   34.773540   36.701244   30.010048
H   59.325279   69.942314   15.487356
H   80.301872   36.494839   91.042000
H   97.615524   81.019707   26.688761
H   32.642735   36.911144   80.765007
H   22.246922    1.018928   33.824005
H   21.511881   87.774887   17.915453
H   65.559006   81.137848   13.983615
H   75.503624    1.674105   68.402817
H   39.135986   95.983810   47.010975
H   77.026085   95.223274   99.660614
H   21.163227   16.734169   34.414246
H   44.772606   92.260918   93.147980
H   46.960869   52.635448   36.954559
H   73.019638   79.366753   81.948372
H   66.450043   76.655685   26.334768
H   55.407646   78.730652   52.863934
H   96.637642   20.714121   41.257393
H   47.885712   97.166573   56.237080
H   93.705269   56.194775    8.039657
H   58.837471   43.279171   46.008396
H   60.918808   72.461456   75.412399
H   13.814627   92.152321   12.022588
H   27.363802   66.216629   65.375389
H   39.369446   61.222469   71.456032
H   90.403107   33.544163   53.073582
