100
TIME:    6.589, STEP:  6589
H   71.735184   17.777777   93.113602
H   18.503551   61.913822   93.562721
H   93.026352   47.942711   45.998486
H   82.582550   61.183685   78.997925
H   36.153976    0.894827   87.050980
H   25.841465   94.069740   31.276665
H    7.641426    6.257624    5.721509
H    2.003891   58.633198    3.213054
H   91.657677   52.787933   85.332939
H   94.790413   10.992607   65.703743
H   87.362305   31.365088    5.064034
H    4.355392   53.963093   23.916580
H   23.609024   63.140644   70.305351
H   28.832634   84.766731   58.666965
H   60.635994   81.470879   34.037510
H   36.595108   35.431068   86.096191
H   94.258827   17.782566   73.211006
H   41.969982   74.218369   71.115273
H   47.890537   54.771606   10.497081
H   14.999374   65.884560   64.942375
H   73.276123    0.260795   78.405067
H   94.074188   52.830978   58.164062
H   97.769554   41.034309   43.832062
H    6.844490   15.651827   17.716711
H   93.924507   63.620476   85.201149
H   16.509943   31.872124   70.816429
H   93.901909   68.581924   30.703497
H   76.580582   63.991951   84.570389
H   54.442451   46.897411   45.706055
H   53.644352   27.762291    7.195509
H   75.375237   12.904313   88.078300
H   81.790802   70.462204   89.287346
H   34.477154   86.400063   91.386108
H   56.502922   69.880203   94.167923
H   16.974319   60.790291   25.931017
H   45.407909    1.507121   98.710609
H   11.770185   63.232056   27.652624
H   91.657524   38.371723   87.409142
H   66.950470   37.852348    5.789546
H   42.583172   95.342850   56.444134
H   84.940460   82.267296   97.579689
H   44.929001   67.441910   16.340538
H   67.992218    3.013344   77.403984
H   58.612461   23.238852   24.973467
H   85.108589   71.922195   19.948870
H   93.073296   88.591934    9.929758
H   93.211227   83.169876   88.712624
H   56.591305   63.234543   76.267914
H   57.630516   86.749123   81.636765
H   64.076416   31.021982   22.828703
H   43.049160   33.518478   22.884754
H   25.349976   52.329941   41.509468
H   45.548717   60.213989   20.189409
H   24.106522   99.694366   22.570351
H   16.168911   36.033279   56.392452
H    1.802351    5.602735   68.321686
H   13.966638   99.423363   82.656120
H   35.424713   54.637901   43.838608
H    9.938041   17.171909    5.645745
H   24.213127   34.240742   76.203758
H   75.339684   72.151382    0.666494
H   65.061440   66.612595   97.221420
H   21.387251   57.661659   81.642944
H   95.494186   77.656174   48.250072
H   93.850998   34.591503    9.173690
H   96.574921   14.714245   35.776947
H   58.920792   76.159790   85.178665
H   25.218620   94.368690   81.194901
H   85.296944   76.342819   46.982822
H   63.873543   79.550224   87.858582
H   12.801573   47.085846   83.109962
H   30.674242   32.849045   39.037567
H   77.375885   92.388245   92.804993
H   85.159370   32.401905   11.657793
H   79.852531   38.035206    0.888476
H   81.426323   29.865471   52.572556
H   65.204681   55.506840    7.598510
H   41.543530   19.881308   78.326073
H   77.478828   34.164753   91.194160
H   76.394424   50.085884   53.272911
H   39.809265   97.447891   73.798264
H   35.730362   87.201447   35.768894
H   34.644264   17.309362   57.447258
H    3.462792   75.994041   61.612774
H   31.500151   36.739647    9.022705
H   99.641953   51.080307   99.343216
H    7.219199   24.278816   37.732384
H   61.998253   77.815979   27.260155
H   92.422714   27.306910   74.301277
H   83.782761   38.187153   59.755745
H   93.671654   29.219280   72.609421
H   65.818176   91.035431   59.069702
H    7.821121   25.221790   28.542063
H   84.068214   12.919860   71.085159
H   42.672997   59.528076   67.494446
H   38.145996   35.538544   27.118713
H   39.598198   45.808792   58.249985
H   25.559031   12.483319   46.606674
H   94.828453   65.255104   93.138832
H   48.478443    9.550919   63.002186
