100
TIME:    2.599, STEP:  2599
H   41.562164   83.679832   96.766556
H   28.974388   45.658920   41.944080
H   24.429258   60.886414   92.828880
H   81.912842   25.571936   97.702454
H   71.892044   81.078827   95.235870
H   87.716927   98.392403   36.133434
H   16.757225   36.834801   93.698036
H   15.610023   13.449028   69.563225
H   89.739555   36.410217   36.489101
H    3.817801   53.701149    9.462489
H   58.502380   70.818970   89.400620
H   56.645912   53.965057    7.929719
H   77.939339    4.464182   66.808678
H   26.393837   97.065010   55.026073
H   12.113567   37.873779   25.840273
H   97.023575   84.410980   17.301828
H   15.111157   53.873283    9.985574
H   56.684242   68.311241    9.441654
H   85.745522   87.384186    0.289256
H   22.497734   50.620640   93.284676
H   10.048279   97.478058   86.701645
H   11.549011   47.534195   97.949448
H   51.043633   73.484718   57.990082
H   77.566238   67.852631   14.048856
H   36.628044   80.048798   55.737541
H   34.741879   50.166080   45.567139
H   37.964058   34.439411   51.540722
H   13.246162   77.752251   52.682285
H   67.683472   84.893776   34.315361
H    0.651292   26.515030   90.001976
H   18.341524   55.112225    3.754340
H   29.859505   80.703682   58.661613
H   53.428387   78.327263   31.935400
H   87.914742   35.539841   62.259186
H   16.167179   62.455658   82.989326
H   98.526901   88.649651   11.705663
H   29.077255    9.354429   13.256228
H   56.568092   11.384968    5.846491
H   35.368446   24.788313   92.450134
H   18.397028   68.874352   42.518276
H   57.626881   45.360592    3.576623
H   98.037834   28.502403   24.904173
H   33.627544   79.085373   89.202019
H   13.395605   56.331406   34.850624
H   31.211935   29.347935   78.514259
H   44.556904   12.488728   93.722725
H   62.037441   66.180145   50.406693
H   56.378216   22.142462   29.389290
H   41.000313   17.200687   40.799164
H   80.393181   70.304680    1.888141
H   43.346333   18.726900   80.820282
H   31.438463   22.571033    3.441342
H   62.793312   37.078613   51.924522
H   16.507679   64.805901   46.502655
H   33.854027   86.347427   22.459120
H   96.818161    9.800526    4.150711
H   61.015644   14.554187    3.173903
H   32.529633   31.444466   46.612015
H   95.255119   48.583187   11.956198
H   87.511749   27.555693   89.688850
H   23.647726   57.704838   11.757964
H    6.670296    3.751717   77.758743
H   50.521915   29.921385   55.256760
H   21.507631   55.932411   56.580486
H   35.480549   53.266888   37.600906
H   41.684456   13.068886   99.858513
H   79.045692   38.216839   92.541397
H    0.834915   66.176758   90.449829
H   86.435875   63.038765   97.226906
H   83.039612   78.865791   96.260376
H   39.503197   18.563631   30.972988
H   59.666786   65.269333   46.908745
H   37.532455   89.749779   95.106682
H   72.995567   84.909851   48.742256
H   87.479759   32.342686   98.419296
H   87.099617   74.145134   21.050201
H    2.926899    1.282421   37.014515
H   54.086071   80.778938   57.974445
H   86.144241   45.884647   46.677162
H   72.065468   67.408432   97.015121
H   61.742603   56.169506   35.324375
H   36.329796   61.201004   69.450661
H   82.239731   50.638092   77.441833
H   28.958019   34.561371   26.039856
H   25.779984   86.315323   95.808632
H   91.473755    4.519180   22.265820
H   40.736061   14.384460   47.473709
H   97.793930   97.212357   68.716713
H    9.618895   49.463722    6.936708
H   36.551876    2.343651   17.126289
H   30.384430   13.770741   88.347855
H   70.590759   90.968071   83.045326
H   52.040638    5.509178   19.980984
H   98.430367   70.882454    2.056375
H   11.655106   16.926620   75.809288
H    8.588378   93.100166   33.207382
H   56.305832   16.831585   87.718513
H   16.407560   38.366608   14.450079
H   84.903191   48.053562   27.344391
H    0.647969   11.945812   47.365021
