100
TIME:    8.160, STEP:  8160
H   65.494621   73.710289   91.675308
H   75.117386   47.043316   92.619095
H   20.033846   60.966934   27.553818
H   82.846237   96.457512   92.884956
H   22.078447   26.817234   44.453522
H    1.476155   92.367760   86.858284
H   25.304966   12.339404   28.575794
H   78.526382   94.546104   58.970581
H   53.039497    1.741873   86.444351
H   51.881325   33.550510   27.217255
H   41.231705   94.578079   53.736443
H   44.397766   32.709057   12.091530
H   23.413734   68.071030   14.188986
H   51.046562   79.924477   78.220055
H   79.717354   41.141403   58.485283
H   73.427155   98.025414   55.689728
H   67.928352   21.691792   16.225348
H   75.561996   97.773552   16.660625
H   72.357605   20.674679   93.263123
H   72.669846   32.527462   71.903358
H   80.050758   43.863934   35.767605
H   44.687489   54.916504   24.378876
H   76.794441   28.259226   98.882187
H   60.877151   34.445526    1.040737
H   37.735176   39.031761   96.803383
H    9.132320   85.546677   22.989754
H   58.433876    3.274409   61.878506
H   44.024384   37.320911   36.498436
H   88.601921   89.431259   71.444603
H   13.884134   88.879196   32.084686
H   37.202732   53.778069   63.785851
H   80.984734   27.059917   43.851982
H   45.136646   71.458015   32.914200
H   22.881516   25.907295   27.982817
H   77.875771   41.843498   21.512678
H   81.972733   24.555540   93.772469
H   62.448269    5.697577   51.441372
H   26.724968    9.618505   98.270790
H    0.634246    3.625933   53.547569
H   94.612839   48.271820   80.046875
H   77.573532   36.171471   34.590542
H   12.533666   73.602600   96.543419
H   81.512177   12.437241   90.879005
H   58.299274   49.608490   78.576447
H   48.835770    9.942020   54.383842
H   72.793358   18.552994   16.312185
H    5.488008   68.606636    3.793175
H   56.685665   79.415344   73.472115
H    3.557534   56.638016   18.967747
H   97.061279   54.933857   12.984834
H   42.941288   81.847969   39.445801
H    1.704125    6.551039   38.383820
H   78.132851   69.323181   28.952108
H   87.725647   74.068771   91.895279
H   91.083199   73.708893   69.751434
H    3.759029    3.950195   14.841141
H   13.561252   54.093147   32.071449
H   18.445444    6.275689    3.371302
H   33.836300   83.557610   85.043152
H   20.543503   54.993809   31.520775
H   74.439560   99.094604   78.177773
H    9.303596   51.989944   26.139862
H   28.042568   50.459503   73.914764
H    3.371869   86.214020    5.593332
H   56.208939    9.118126   55.474350
H    0.067383   36.615471   28.667240
H   32.876892   30.475307   61.027081
H   16.698936   84.216118   56.297791
H   63.597290   63.460777   48.452576
H   95.750099   58.498409   84.536377
H   62.915531   40.195282   64.268318
H    1.311772   80.655663   54.170017
H   74.943741   14.685358   52.529232
H   50.573071   32.973713   18.314051
H   55.546326   40.330372   19.998190
H   18.563211   30.551884   46.864441
H    7.884729   19.531425   35.460220
H   15.350255   17.161129   65.087830
H   52.813553   29.550228    8.721880
H   99.351830   64.505608   17.929787
H   70.560677   13.701303   67.694977
H   53.615479   97.389359    4.338947
H   34.012367   43.582188    7.059592
H   11.544774   10.427849   18.127758
H   55.006241   38.463406   56.732506
H   63.492672    8.783446    8.438392
H   12.142808   10.053852   12.643623
H   87.264275   52.103416   10.971481
H   25.028263   39.836052   61.452522
H   44.885433   73.552750   15.917852
H   57.963520   14.048388    5.786299
H   82.056267    9.189611   89.008202
H    8.525251   72.359734   50.029907
H   35.898384    8.230580   77.015068
H   15.509583   18.806190    3.595309
H   67.904129   73.502625   45.974403
H   14.900110   35.964226   67.899590
H   22.526628   90.216637   15.068872
H   19.989250   72.039055   61.552914
H   46.059559   69.232468   11.660949
