100
TIME:    3.600, STEP:  3600
H   73.869049   91.883057   95.850113
H    1.129007   99.930191    5.086861
H   41.635475   32.901878   81.083138
H   82.080856   84.329643   42.835125
H   62.926178   61.313381   68.093887
H   72.198494   97.307945   35.265938
H   64.292534    4.425961   71.977623
H   36.933395    0.048477   77.654289
H   65.133064   40.168137   73.480690
H   76.462517   68.074028   48.663330
H   65.391800   11.096260   92.979378
H   18.437881    4.140155   36.676628
H   14.266788   43.902466   67.317467
H   76.830162   93.979652   31.201748
H   24.290802   48.460617   77.724464
H   56.776459   96.859795   34.210304
H   34.616646   20.083241    1.110553
H   78.070518   19.632851   74.737976
H    1.339929   29.377710   53.023014
H   95.530144   29.366327   61.437370
H   50.647614   97.825317   59.530373
H    7.515854   48.863037   12.704987
H   37.678841   65.343651   29.350887
H   84.562477   79.858032   39.706402
H    0.828227    0.660393   63.126625
H   30.150488   20.342009   51.742340
H   51.647358   92.828934   71.401772
H   28.784616   24.475525   85.768486
H   89.448990   75.712234   86.998817
H   39.032578    1.739427   69.578308
H   57.739605   44.874256   24.558403
H   93.063515   53.045410   65.994026
H   23.936262    5.089569   22.113386
H   30.210594   43.804176   20.088619
H   91.284256   86.787621   43.942558
H   85.564751   67.285187    8.260282
H   25.086182   72.695786   92.131340
H   15.198297   93.067024   76.482918
H   93.114624    2.980791   95.445854
H   24.114010   75.163834   21.274389
H   89.217667   79.707779   27.160139
H    8.073692   73.429413   71.932388
H   42.249744   85.088074   61.504284
H   49.474396   73.105804   32.723145
H   44.382076   89.854187   64.172546
H   31.642696   31.581287   97.785622
H   69.859665   20.618183   60.021706
H   56.431675   32.448792   91.325554
H   70.259384   34.297409    0.867456
H    1.380214   85.532906   31.875607
H   43.269962   22.086887   91.374649
H   80.086258   29.685810   37.728962
H   83.551186   42.882751   93.786751
H   93.327110   48.470680   90.675201
H   54.156082   74.080505   30.966166
H   98.070633    8.747549   70.074310
H   24.476480   85.670067   98.377296
H   57.992668   36.912354   20.827766
H   74.200508   90.877029   35.108997
H   21.456413    4.495131   61.218025
H   86.791145   11.156243   33.711414
H   71.143578   94.433792   32.465874
H   18.463884   61.625664   86.607658
H   90.244987   61.377609   29.400318
H   75.213829   73.318672   30.821840
H   80.191536   63.306160   59.043900
H   98.733292   72.822144   40.870892
H   31.689278   23.425348   38.303417
H   36.325981   91.113297   34.446972
H    3.322848   29.211729   94.152557
H    7.715483   50.456032   18.963768
H   77.130173   32.048279   20.196480
H   72.264664   40.234982   69.446281
H   50.963406   21.563885   89.254723
H   35.742153   33.770809   74.302284
H   10.761968   38.298904   53.694378
H   93.811440   14.522186   54.717136
H    1.114874   15.324938   13.253531
H   34.145660   42.944393   57.850128
H   22.974678   12.889534   10.777964
H   81.324814   66.525314   95.152817
H   11.435998   67.738297   85.747437
H   45.570965   67.347900   72.782135
H   97.824814   20.218781   34.612381
H   77.038986   23.702084   98.772903
H   68.440491   41.288597   91.778015
H    7.590597   41.603600   95.205109
H   13.904757   17.069427   58.303993
H   30.394833   93.730400   98.747444
H   48.050564   61.163857   52.907333
H   71.349426   67.819786    9.487222
H   44.657982   66.244682    2.122328
H   16.221252   35.535141   97.397972
H   95.180977   31.598873   69.546989
H   94.347450   27.263470   98.812004
H   91.266800   53.570930   81.504143
H   76.851410   74.277275   30.150503
H   20.080969   46.889526   98.432747
H   37.217613   52.368481   43.499588
H   62.819279   86.251595   50.940872
