100
TIME:    3.432, STEP:  3432
H   85.230377    7.289473   96.003922
H    5.802392   90.822159   94.489578
H   38.747719   20.815678   83.054451
H   82.052658   91.251030   52.044415
H   64.430939   47.847439   72.649185
H   74.802986   97.489952   18.628210
H   73.098076   93.082146   58.839806
H   50.137863   85.513565   93.078728
H   69.262825   56.320602   84.055031
H   81.053703   65.661797   42.084167
H   81.018753    4.336606    9.162222
H   24.850418   95.719284   48.635246
H   24.953228   54.066650   84.015953
H   85.148643   94.497475   18.416409
H   22.247070   63.467209   85.799416
H   63.531219   11.553888   48.155617
H   48.126167    8.971648   85.816849
H   74.481651   27.802650   80.562195
H   98.723015   22.329432   44.172611
H    0.057217   32.933880   49.999138
H   60.616974   14.550499   64.089539
H   91.409531   48.640015   27.011749
H   39.921883   66.709984   34.157761
H    0.171490   77.843140   52.184124
H    6.836661   13.984062   61.885902
H   30.921453   25.347837   67.488777
H   66.134659   99.811844   68.069252
H   42.959507   16.633850   80.215996
H   85.796036   60.469803   94.940468
H   32.590561    5.897704   56.222595
H   51.127117   29.809893   37.850029
H   82.455849   57.686584   81.546638
H   12.102509   17.380836    6.978619
H   23.111687   59.200417   27.165737
H   95.460159   99.487083   33.713005
H   70.955498   54.087444    8.840268
H    8.972810   78.848129   78.893547
H   22.141510   96.140633   64.626839
H    0.205232    6.640795   11.726095
H   39.937389   90.890762    8.056463
H    0.699443   73.942520   23.202131
H   23.172569   65.890228   64.039444
H   40.802662   84.080627   49.370068
H   60.202545   70.291107   16.297056
H   58.954159   96.483337   49.796566
H   33.810116   28.376942   97.103737
H   68.547165   11.481313   58.407997
H   56.422703   30.718920   80.930656
H   65.347763   48.210678    7.569308
H   97.857506   82.977119   43.625301
H   43.282780   38.306396   89.603287
H   71.921585   45.275497   48.758320
H   80.067421   41.908630    3.543598
H   97.218468   51.212318   83.261627
H   67.532303   59.356300   29.537668
H   97.860428    8.924429   75.793427
H   13.826451   90.517601   82.399147
H   70.502434   52.777710   25.155556
H   60.950195   83.778763   48.007130
H   32.542168   91.582458   65.996346
H   76.193733   18.968880   46.809498
H   77.106224   95.997513   40.067863
H    7.058335   73.089531   98.127922
H   78.709343   60.463730   33.962025
H   68.546227   86.735909   15.176301
H   90.512093   71.657967   49.110428
H   12.212566   67.013306   32.760052
H   43.294136   13.816798   30.272047
H   27.952385    3.184690   44.984142
H   99.919250   20.761869   94.506317
H   13.050398   61.886574   20.979301
H   90.983200   37.623840    7.896277
H   83.218399   48.544491   73.752922
H   54.662502   32.195274   99.236900
H   27.642504   33.531124   61.566929
H    6.790133   27.531286   64.998138
H   78.558754   29.083374   51.746067
H   93.221924   26.310076    3.975279
H   26.089933   43.437862   55.974945
H   31.213692   22.039223   25.251236
H   78.038437   64.787277   85.111679
H   98.830490   66.641129   99.795288
H   34.941509   64.543457   56.780918
H   86.266098    5.842390   49.956070
H   85.219040   34.211056   15.058392
H   72.306213   35.117027   80.111633
H   96.370232   53.818565   87.194244
H   11.200930   30.519989   60.051003
H   26.907864    3.084395    0.121511
H   62.904629   68.075516   46.902390
H   64.474182   58.748386    5.939370
H   32.226402   53.610817   98.920830
H    5.452415   30.494062   84.406273
H   78.943916   21.408413   58.219643
H   97.251869   42.312359   94.951408
H   77.390701   60.205208   90.181511
H   90.186615   64.636040   39.812370
H   19.464453   45.459106    1.121443
H   45.220787   51.644299   57.571793
H   52.384647   90.563362   67.125137
