100
TIME:    7.529, STEP:  7529
H    8.166971   31.575283   92.253006
H   92.544601   12.848535   52.833622
H    9.187571   15.570388   34.961346
H   82.740326   22.455994   27.472160
H   27.732664   76.239891   61.563004
H   11.262122   93.051369   24.367886
H   58.373837   69.732834   79.230759
H   28.121742   39.955784   16.905533
H   68.550682   62.410736   26.162750
H   69.115974   24.490282    2.508756
H   99.925797   69.188263   14.518465
H   68.482056    1.080668   57.006462
H   63.650383    6.265879   76.894936
H   82.290382   81.869392   30.200352
H   72.053230   97.505447   88.832794
H   98.797714   53.215149    8.067930
H   18.669838   79.955276   58.782925
H   62.072063   28.477707   38.532990
H   62.527836   94.202911   60.017193
H   89.673416   45.925236   28.941904
H   17.495178    6.680952   52.891529
H   84.192902   54.078842   78.114395
H   85.219200   33.389351   16.936438
H   19.504923   26.896944   47.905174
H   60.303902   89.072418   92.143288
H   12.107464    4.147991   82.370415
H   12.844458   29.504778   49.356907
H   97.267052    7.867958   15.640599
H   74.881599   32.181416    1.272979
H   89.688965    4.496634   81.922722
H   12.368268   97.196060   13.708488
H   41.142849   44.491947    2.266836
H    0.688901   17.624872   76.068733
H   96.219414   83.734840   54.566177
H   93.579521   89.619102   83.122375
H   27.120548   75.132278   95.755898
H    1.928478   28.807894    1.721187
H   52.803696   21.166981   53.741028
H   27.270367   17.372732   14.696362
H   54.045204    7.343148   30.400202
H   20.697622   14.522244   19.724455
H   65.710823   71.128128   64.327141
H   76.081818    8.652117   45.300625
H   98.592529   39.016441   16.881409
H    3.571213   34.836163    0.386436
H   80.938896    6.519956   13.748652
H    0.555312   34.291389   97.734535
H   56.647152   72.916245   34.429379
H   85.110542    8.898975   44.139679
H   83.812744   45.329632   57.105545
H   42.984615   42.767456   32.792648
H   71.037903   65.104401   79.804749
H   65.047997   65.664429   65.597603
H    2.340622   84.361420   64.050247
H   41.325089   18.410213   64.388474
H    2.973119    4.613946   36.321869
H   73.556931   72.300255   72.057976
H   65.430832   65.866234   19.625349
H   84.069389   56.895573   33.484703
H   62.181068    6.491288   49.467918
H   34.636181   28.438663   27.376068
H   31.699013   57.863205   54.692078
H   85.204613   93.517242   17.184326
H   60.043865   82.776718   22.726238
H   31.161007   59.516567   96.711555
H   38.828949   67.984459   91.357086
H   83.502472    8.660400   30.563040
H   60.286232   48.129265   26.132339
H   32.146461    8.800400   88.026764
H   82.934837   26.806871   85.874710
H   82.952278   83.128799   71.836159
H   53.271969    1.606916    7.919455
H   16.086195   45.896816   68.708313
H   64.462044   72.908142   55.805756
H   25.150339   39.401241   72.155563
H    3.644995   90.111107   89.323280
H   50.576862   74.147041   24.268988
H   85.706436   58.418530   30.238062
H   22.556631   31.403675    1.679978
H   30.295315   98.878624   72.291145
H   58.207573    7.173318   29.980942
H    6.267250   93.297333   57.127300
H   94.100624   33.029575   46.967537
H   68.131432   56.432125   75.758904
H   85.730133   77.936302   17.900679
H   78.012314   85.607224   64.619812
H   69.999672   55.932838   82.555077
H   77.116051    2.595461   17.513908
H   11.931375   74.969704   66.613289
H    0.673475   99.510635   93.361099
H   32.140430   79.975365   92.460495
H   35.368656   61.732056   76.982460
H   68.076920   53.427814    1.233709
H   74.914406   69.948570   34.467632
H   26.420849   75.328140   89.095398
H   15.786162   98.420654   78.566185
H   64.985710   99.753799    4.188777
H   23.744608   58.992847   27.737303
H   50.048790   69.314247   14.404148
H    6.867298   85.427261   72.448441
