100
TIME:    4.670, STEP:  4670
H    1.509854   93.758614   94.870499
H   71.501411   57.925659   72.565186
H   60.027733    9.882731   68.527748
H   82.260452   40.247002   84.184700
H   53.342285   47.078598   39.080978
H   55.606228   96.148735   41.232006
H    8.216291   76.678970   55.653088
H   52.833504   92.616669   79.410316
H   38.830421   37.292007    6.126465
H   47.221031   83.437645   90.561157
H   65.863007   54.150074   89.911453
H   77.600639   57.773582   60.513252
H   46.064713   79.185829   60.987305
H   23.849987   90.681618   12.628543
H   37.305763   52.884033   26.289185
H   13.753334    3.273701   45.390564
H   48.573555   90.855301   98.516869
H    0.932895   67.589897   37.639599
H   18.005219   74.266663    9.396975
H   66.696831    6.643358   34.287910
H   87.152306   91.303741   30.492760
H   10.097794   50.283478   21.584610
H   23.392799   56.641411   98.735092
H   85.147873   92.690979   60.239220
H   62.558014   15.804764   71.028847
H   25.257826   88.598907   51.272129
H   59.380440   48.351574   92.626747
H   38.500813   74.419525   21.136515
H   12.715859   72.790977   36.418068
H   80.062088   75.257072   54.640022
H   99.847908   40.823399   39.903404
H   60.623852   23.485550   66.938759
H   99.305153   26.802542   18.507437
H   75.419952   45.745056   75.011711
H   64.687729    5.903881    9.099594
H   78.592911   51.203266    4.745481
H   27.713102   33.511215   76.443100
H   70.970833   73.491066   51.989559
H   47.951504   79.666496   91.754883
H   23.331976   74.994041    5.459803
H   16.090351   16.423521   52.368877
H   11.907803   21.449598   22.201235
H   51.466282   91.504547   38.792862
H   81.148117   91.032745   37.343117
H   51.567219   47.635979   55.735249
H   17.838299   51.989918    2.131914
H   78.219040   78.808067   70.294487
H   56.488819   43.469452   57.531059
H    1.541373   45.679760   58.187698
H   23.821545    1.811736   57.037239
H   43.188328   18.785191    2.656063
H   32.084938   30.397905   67.486328
H    5.741200   49.086975   31.642324
H   68.542870   31.009056   37.889854
H   68.962585   67.856697   40.067951
H   99.409439    7.621336   33.648987
H   92.310013   54.795891    0.143198
H   78.317764   35.864098   93.265976
H   58.588623   36.088562   52.965340
H   50.846096   86.739655   30.784676
H   54.288025   61.393642   50.285194
H   33.167198   84.474380   84.051666
H   91.106636   88.610397   13.234550
H   63.721443   67.202637    0.346595
H   17.681986   87.858978   30.466234
H   14.459877   10.113317   22.310171
H   12.885519    9.817498   92.529221
H   57.776939   84.619156   89.455605
H   89.653885   14.229904   67.339661
H   25.000879   83.030273   91.899445
H   73.738731   77.653015    6.126889
H   88.904327   96.536560   98.536919
H    2.498145   87.309364   42.010536
H   27.403683   53.853565   25.677757
H   87.330696   35.297375   55.415859
H   36.060081    6.875472   81.697372
H   90.960617   21.781445   73.640022
H   51.385418   45.360989   72.347511
H   85.456367   39.801464   69.789299
H   70.499542   54.616566   18.596428
H    2.256653   77.594955   59.103741
H   91.720619   74.726212   96.274559
H   13.261789   85.218201   74.691589
H   71.437500   11.780853   36.884422
H   24.939280   56.774788   95.048378
H   43.812824   80.592171   66.082169
H   79.053459   63.805878   46.227203
H   31.125559   31.402594   47.177208
H   52.599716   34.153526   89.996223
H   53.448475   17.138359   91.158905
H   15.138358   25.598785   32.083660
H   23.831259   46.708023   22.511423
H   84.809639   67.642921   80.142807
H   98.600388   96.502365   41.692562
H   75.849068   31.419518   23.397762
H   79.644424   11.318674   26.237572
H   91.920006   35.682232   68.612930
H   24.007589   55.999939   81.305824
H   86.245178   56.980831   53.876328
H   29.282732   58.791294   47.864765
