100
TIME:    3.601, STEP:  3601
H   73.801422   91.791351   95.849197
H    1.101189   99.984406    5.149939
H   41.652664   32.973824   81.071404
H   82.081024   84.288445   42.780308
H   62.917221   61.393536   68.066772
H   72.182991   97.306862   35.364975
H   64.240120    4.493488   72.055824
H   36.854797    0.134988   77.562477
H   65.108482   40.071991   73.417747
H   76.435188   68.088387   48.702492
H   65.298782   11.136496   92.883049
H   18.399712    4.190279   36.605446
H   14.203179   43.841965   67.218071
H   76.780647   93.976570   31.277851
H   24.302967   48.371292   77.676399
H   56.736252   96.772331   34.127296
H   34.536232   20.149380    1.201587
H   78.091881   19.584221   74.703308
H    1.355504   29.419664   53.075695
H   95.503197   29.345091   61.505455
H   50.588272   97.725769   59.503235
H    7.611725   48.864365   12.619827
H   37.665489   65.335518   29.322273
H   84.469566   79.870026   39.632130
H    0.792463    0.581085   63.134010
H   30.145899   20.312212   51.648613
H   51.561123   92.787369   71.421608
H   28.700239   24.522202   85.801537
H   89.470734   75.802963   86.951546
H   39.070923    1.714676   69.657806
H   57.778965   44.963924   24.479286
H   93.126656   53.017784   65.901451
H   24.006701    5.016406   22.203474
H   30.252850   43.712532   20.046494
H   91.259399   86.712029   44.003448
H   85.651711   67.363739    8.256829
H   25.182095   72.659164   92.210136
H   15.156966   93.048729   76.553490
H   93.072418    2.959005   95.348946
H   24.019821   75.070221   21.353067
H   89.149323   79.742096   27.183699
H    7.983818   73.474289   71.979370
H   42.258358   85.094070   61.576511
H   49.410538   73.122559   32.820915
H   44.295338   89.814728   64.258118
H   31.629795   31.600361   97.789680
H   69.867477   20.672569   60.031311
H   56.431728   32.459091   91.387428
H   70.288620   34.214592    0.827565
H    1.401187   85.548119   31.805668
H   43.269886   21.990341   91.385193
H   80.134857   29.593018   37.663311
H   83.571922   42.888550   93.728676
H   93.303947   48.454361   90.719330
H   54.076462   74.168152   30.974669
H   98.071884    8.746496   70.040268
H   24.539873   85.641212   98.472404
H   57.918205   36.817917   20.802006
H   74.279381   90.919281   35.032223
H   21.390427    4.571997   61.189583
H   86.854225   11.109740   33.633450
H   71.108086   94.424484   32.420624
H   18.531775   61.557426   86.539085
H   90.313652   61.383049   29.373165
H   75.253517   73.238808   30.914968
H   80.130104   63.256447   59.103027
H   98.653061   72.856720   40.919170
H   31.620201   23.482542   38.351223
H   36.375824   91.041443   34.384251
H    3.343107   29.262026   94.150452
H    7.683727   50.387993   18.951771
H   77.047714   32.015091   20.269695
H   72.199463   40.185520   69.420647
H   50.941387   21.500603   89.195305
H   35.790363   33.772236   74.378090
H   10.785609   38.362999   53.627094
H   93.902229   14.435513   54.734821
H    1.161856   15.259550   13.308758
H   34.193611   42.941456   57.861290
H   22.925636   12.835072   10.691814
H   81.344376   66.535660   95.212585
H   11.511031   67.744827   85.663818
H   45.634235   67.364594   72.877380
H   97.893616   20.304356   34.521049
H   76.990295   23.639530   98.675964
H   68.417480   41.325333   91.847458
H    7.657385   41.530891   95.252792
H   13.920851   16.989365   58.293594
H   30.415588   93.674721   98.739265
H   47.962147   61.122711   52.943077
H   71.390350   67.873787    9.508340
H   44.731979   66.319878    2.141384
H   16.285351   35.565147   97.475304
H   95.277626   31.659531   69.614418
H   94.330162   27.173893   98.834984
H   91.349396   53.531441   81.452492
H   76.772034   74.334663   30.092989
H   20.084639   46.898041   98.416740
H   37.169975   52.372791   43.415825
H   62.881390   86.225929   50.844536
