100
TIME:    8.176, STEP:  8176
H   64.412590   72.243004   91.660660
H   74.675491   47.910381   93.627884
H   20.308870   62.118057   27.366013
H   82.848923   95.798332   92.008003
H   21.935076   28.099705   44.019684
H    1.228013   92.350426   88.442757
H   24.466404   13.419848   29.827015
H   77.268814   95.930382   57.501465
H   52.646187    0.203501   85.437271
H   51.444313   33.780247   27.843781
H   39.743423   95.221878   52.195305
H   43.787048   33.511059   10.952675
H   22.393471   67.102524   12.598959
H   50.254326   79.875160   79.437584
H   79.911690   39.712204   57.715874
H   72.783844   96.625999   54.361603
H   66.641731   22.750019   17.681890
H   75.904037   96.994987   16.105999
H   72.606873   21.345943   94.106140
H   72.238693   32.187740   72.992714
H   79.101295   42.271038   35.333401
H   46.221424   54.937744   23.016327
H   76.580818   28.129160   98.424423
H   59.390457   34.636932   99.852432
H   37.162910   37.762840   96.921547
H    9.056881   85.074997   21.484077
H   57.054115    2.609286   62.196011
H   42.674408   38.067738   37.027367
H   88.949821   90.882919   70.688255
H   14.497629   88.483200   33.356659
H   37.832493   55.212761   62.519981
H   81.994987   26.617901   42.370781
H   46.263721   70.287361   34.355606
H   23.557602   24.440987   27.308805
H   77.477577   40.632072   22.486189
H   83.363602   25.808775   93.722176
H   63.982815    5.111578   52.702114
H   26.063652    9.325689   99.399940
H   99.958855    3.277361   51.997032
H   93.105759   46.773895   81.305664
H   76.480026   36.720421   34.967495
H   11.185246   73.665344   97.360313
H   81.649872   12.533218   92.034767
H   57.277668   49.877167   80.140900
H   47.447952    9.310795   55.753105
H   72.586815   18.858109   16.377188
H    5.613084   69.476753    3.946839
H   56.686642   79.580139   74.462105
H    4.025200   55.312943   18.329502
H   97.397217   55.177387   11.866090
H   42.940189   80.303291   39.614502
H    2.481759    5.066343   37.333527
H   78.464638   69.415955   28.022848
H   87.355042   73.807785   92.601334
H   89.809273   75.110992   69.887421
H    3.778957    3.933365   14.296463
H   14.575564   53.631477   33.593178
H   17.254099    4.764657    2.959155
H   35.098263   84.233635   83.814880
H   19.487717   56.223667   31.065697
H   75.448837   98.350464   76.930214
H    8.735725   51.841019   25.415924
H   29.128811   49.367706   72.817596
H    4.470578   86.301178    5.158899
H   56.844070    7.840174   56.964340
H   99.084480   35.820061   29.613285
H   31.593180   31.028469   61.799541
H   15.593700   85.131157   57.062683
H   64.394714   62.311119   47.449036
H   96.075050   59.301998   84.502441
H   62.407352   39.106537   64.076424
H   99.994232   80.124413   55.342747
H   73.900528   13.893915   52.118954
H   50.220898   31.961136   17.363428
H   56.317078   40.353931   21.211325
H   18.941507   31.577335   45.787903
H    9.337886   18.146538   35.744034
H   16.101877   16.114986   65.971619
H   53.580765   29.503231    8.900438
H   98.567162   63.634026   16.551369
H   70.873909   13.866830   68.651276
H   54.816040   97.493118    3.000395
H   35.024452   43.849766    8.583386
H   12.645543   11.797020   16.666454
H   54.227188   37.462551   55.181480
H   63.124386    9.371154    9.549506
H   13.211411    8.890491   13.406563
H   87.521599   50.823021   10.805588
H   25.360355   38.945183   61.321663
H   43.470760   72.894547   16.489809
H   58.618305   14.912311    6.124205
H   83.240105   10.392950   89.313133
H    9.550856   72.839714   51.267212
H   37.444649    9.201283   78.093925
H   15.232910   17.372963    3.962954
H   69.225662   72.870789   45.147987
H   13.630121   36.882439   66.979424
H   22.495745   91.008385   14.747644
H   19.227043   72.108147   60.212704
H   47.053333   68.821823   10.119597
