100
TIME:    2.898, STEP:  2898
H   21.342308   56.259941   96.492813
H   20.657173   61.871330   60.804951
H   29.568777   82.398026   89.320412
H   81.963028   13.252375   81.314392
H   69.213928    5.044981   87.128525
H   83.081551   98.068474   65.745415
H    1.087019   57.025604   17.080315
H   92.109207   39.315487   42.109577
H   82.389565    7.662508   17.667881
H   95.647118   57.994347   21.171831
H   30.690125   82.849960   60.598598
H   45.233124   68.952469   86.646568
H   58.919395   86.374237   37.091415
H   11.589091   96.143410   77.779549
H   15.750923   11.166406   11.467462
H   85.001709   58.259430   92.481789
H   91.067146   73.650024   37.204723
H   63.073853   53.770943   99.074890
H   90.403709   99.926163   16.040972
H   14.442856   44.272091   13.641901
H   92.305298   67.713104   78.585175
H   40.214432   47.931122   72.486816
H   47.051552   71.052971   49.435623
H   49.785919   71.438660   91.842598
H   25.934479   56.334297   57.943451
H   33.370884   41.258038   17.542143
H   12.180656   22.010130   57.474094
H   88.017113   91.708565   62.566677
H   74.184860   12.021403   20.182070
H   12.115937   19.114853   13.771381
H   30.109037   81.924561   80.098412
H   48.738625   72.441216   30.981667
H   74.489471   56.450661   58.871681
H    0.547991    8.138363   49.662460
H    8.734483   39.853638    1.197636
H   24.524387   12.137434   10.677987
H   57.754196   98.403793   36.816280
H   44.210892    5.912505   26.945454
H   22.746628   18.274378   63.474472
H   90.234238   40.882278   66.043983
H   37.193554   55.619099   10.621757
H   71.165428   41.922638   38.951157
H   36.203007   80.878387   10.799563
H   94.302734   61.343178   64.084068
H    5.275957   17.551907    4.100254
H   40.699413   18.191700   94.936317
H   64.375290   82.440460   53.278709
H   56.394184   25.220926   47.889732
H   49.739548   92.437614   28.871126
H   86.661888   74.853371   80.974396
H   43.323521   89.860016   83.972885
H   45.969593   94.826202   83.813622
H   68.994026   38.812317   34.557831
H    9.584270   59.926811   59.697052
H   10.049427   12.557151   24.997087
H   97.192276    9.486292   93.972046
H   79.971962    5.926160   31.611458
H   10.265376    3.206978   38.910721
H   18.836258   61.216412   89.002281
H   67.779465   50.538670   81.184578
H   42.509102   43.800991   88.445084
H   96.058922    0.968096   64.231293
H   70.806602    9.528524   34.745926
H   42.040031   57.558899   48.461735
H   47.349575   29.385246   65.447258
H   23.316322   98.204781   17.537113
H   55.056709   48.552906    6.977211
H   80.181007   83.276550    4.743758
H    1.336767   41.554527   78.475533
H   89.098450   93.903389   95.630768
H   30.008648   98.219368   27.385818
H   35.013977   55.346161   68.800812
H   18.036596   74.958549   87.441887
H   66.416618   65.989670   30.971794
H    1.896687   32.769268   21.086155
H   94.166740   93.307121    0.931600
H   30.074236   75.368057   42.302311
H   68.133636   61.228825   74.486526
H    0.483733   45.006390   50.014542
H   57.401985   51.123501   71.255936
H   67.592453   59.262798   53.195210
H   58.765289   63.153702   44.448830
H    1.155457   55.629333    5.920097
H   49.527500   60.147186   98.729980
H   11.220483   67.614136   66.823845
H   84.593689   15.501965   43.029202
H   60.705589   92.644707   61.731140
H    2.606623   73.273560   65.605171
H   15.824299   32.815605    4.490418
H   10.115995   90.043045   27.814800
H   42.620728   29.915855   94.662186
H   92.713730   13.452513   88.743736
H   71.222046   14.470543   43.111229
H   27.330364   89.017906   22.216297
H    6.484875   90.144104   82.680229
H   33.284531   81.292732   17.763733
H   32.572342   33.990688   70.522911
H   17.504812   40.912415    9.665855
H   70.659447   49.342434    2.299152
H   19.217424    4.267507   18.565729
