100
TIME:    5.296, STEP:  5296
H   59.175453   36.351082   94.297379
H   54.212288   91.845673   12.034873
H   70.791077   54.919250   61.180424
H   82.365524   14.454971   49.871941
H   47.735260   97.255264   22.108463
H   45.896618   95.470543    3.226429
H   75.405922   18.948376    4.607137
H    3.631142   46.772686   21.932423
H   23.442146   77.104538   66.723900
H   30.113661   92.426079   15.074369
H    7.634003   79.338699   29.612297
H   53.709023   89.151909   15.954023
H    6.118240   41.331245   98.784599
H   92.854988   88.752113   60.269150
H   44.918709   96.967728   96.197784
H   88.582642   48.521561   93.426483
H   98.234200   32.259953   55.504120
H   14.319079   37.132778   15.939219
H   27.755424    0.525198   42.375263
H   49.832008   93.348183   76.908943
H   50.004570   28.983795   13.502136
H   70.113022   51.114502   68.274963
H   15.034659   51.550194   80.825089
H   26.982899    0.183808   13.745730
H   40.168121   66.161484   75.652016
H   22.404165   70.096680   92.406067
H    5.398478   22.328033    5.046045
H   85.680641    3.639065   41.830925
H   26.327751   29.586256    6.827975
H    4.066020   59.763725    4.405776
H   24.485630   96.958542   90.376274
H    0.150030    6.191035    8.986763
H   43.400593   81.001991   74.902458
H    1.869537   88.375999   48.638634
H   49.127518   58.583115   47.216858
H   33.009434    0.233702    2.776310
H   87.754272   10.584179   25.769268
H   45.097950   62.037395   96.166267
H   21.525890   66.026237   31.090155
H   64.368431   16.389263   54.713413
H   73.307724   37.901199   67.117165
H   55.646172   49.545914   51.607075
H   56.858387   95.258484   84.009377
H   41.175716    1.535932   98.551315
H   97.267220   22.939278    9.303290
H    9.761158   63.929920    4.676707
H   83.109665   12.852189   76.302696
H   56.522251   49.917053   96.264427
H   19.838440   93.835632   33.213989
H   36.950771   11.339857   13.255638
H   43.140568   58.348953    9.255303
H   62.508064   72.310852   26.389244
H   18.726307   52.716736   95.285301
H   54.046211   20.793190   65.514244
H   19.119621   22.720819   45.393192
H    0.191858    6.962845   12.338470
H   31.995209   36.733055   59.681129
H   31.704010   76.745705   77.142197
H    7.961637   62.538055    4.905788
H    9.538277   34.856464   12.979744
H   93.776001   32.283916    1.478886
H   10.951506   78.647659   55.728584
H   33.605495   45.893845   70.307831
H    6.705945   70.612701   83.353485
H   42.530144   37.861301   88.762169
H   76.004387   78.993279   59.324181
H   62.660553   31.459606   22.753433
H   14.534986   20.421320   19.382025
H   20.853422   69.249550   28.076561
H   37.682480   14.515179   90.581268
H   53.861015   35.060638   98.617439
H   37.287781   75.760956   44.370407
H   61.682312   56.342957   25.958397
H   13.624569   14.235565   88.483604
H   17.513163   36.190487    2.870319
H   50.860909   46.997177   39.575817
H   47.797764   67.525093   84.710793
H   80.796036    4.427442    6.917006
H   15.476348   37.962704   76.771812
H   39.800377   20.520050   64.666107
H   14.506182   84.071213   96.518929
H   38.691360   78.814468   43.929588
H   52.859612   95.687195   34.308064
H   14.506674   65.349289   79.708954
H   94.457390   17.616356   34.364510
H   29.403629    3.584212    9.553565
H   20.862600   18.290588   76.077209
H   41.202713   81.284393   40.667519
H   65.590439   99.299950   84.876350
H   98.100616   91.382980   13.537285
H   40.756828   59.398998   45.303631
H   70.149269   93.789474   34.437279
H   24.937136   86.427010   28.552387
H   59.105255   34.475292   83.900337
H   65.026649   75.346672   37.781651
H   31.349503   86.598785   93.903458
H   42.230492   71.607307   32.611435
H   26.304846   61.329956   71.285774
H   56.423828   59.679272    1.440628
H   68.164673   42.729603   87.560135
