100
TIME:    7.686, STEP:  7686
H   97.549797   17.178146   92.109268
H   88.208511   21.356503   62.733562
H   11.886248   26.865185   33.117908
H   82.766678   15.987194   18.866459
H   26.325830   88.824135   57.305969
H    8.827264   92.881279   39.916428
H   50.146046   80.333496   91.508362
H   15.781853   53.537807    2.490111
H   64.691322   47.315872   16.280178
H   64.827797   26.744570    8.656425
H   85.322037   75.505539   99.395447
H   62.490280    8.950018   45.830849
H   53.639046   96.763016   61.292408
H   74.516563   81.385475   42.148556
H   73.960152   83.481430   81.281769
H   92.485229   39.483398   95.035431
H    6.044632   90.340332   73.075256
H   65.429031   20.838043   33.091316
H   64.973053    0.788622   68.288727
H   85.442734   42.591717   39.631203
H    8.178574   91.051392   48.630901
H   99.244644   54.287262   64.744385
H   83.123024   32.112480   12.444270
H    4.917334   28.775118   36.244446
H   54.688545   76.622330   93.302773
H   11.367214   99.520187   67.596565
H   99.306168   22.978483   52.472424
H   84.019218   15.196189   20.830153
H   78.295372   46.425831   93.851402
H   95.709183    0.610624   94.403954
H   18.547373   11.274527    1.287214
H   51.055965   40.154659   87.732567
H   11.748026    6.138402   90.212532
H    2.853049   69.346687   47.951843
H   89.672249   77.731987   92.673752
H   40.768238   87.429047   95.262398
H   16.986748   23.057783   14.091933
H   46.315132   18.293423   64.819710
H   20.642857   13.952372   99.482231
H   39.258179   92.645508   42.753189
H    9.968195   19.908819   23.423307
H   52.479759   71.743805   72.342918
H   77.432953    9.593899   56.640339
H   88.566818   41.651634   32.231998
H   89.952217   28.642262   13.821728
H   78.912193    9.513968   14.386488
H    1.782623   42.829414   99.241386
H   56.656734   74.533295   44.143658
H   89.700569   95.896248   37.876305
H   87.109131   47.719273   46.127571
H   42.973835   27.610132   34.448029
H   78.667984   50.535465   69.498749
H   68.303658   66.574768   56.479836
H   98.704834   81.800491   70.978409
H   28.824539   32.168922   65.722839
H    3.168663    4.448797   30.977219
H   83.510773   67.770119   86.989937
H   53.740158   51.039680   15.580958
H   96.452126   63.530270   21.431763
H   51.821167   18.559254   45.002464
H   44.539715   21.137383   15.135575
H   26.126778   56.401871   47.587837
H   95.862770   82.803986    6.418365
H   70.824638   83.631958   18.463215
H   37.393158   46.976643   11.332545
H   29.184319   60.179497    0.640170
H   70.906250   14.087999   38.142925
H   49.441216   57.108086   33.637848
H   39.971786   97.519402   78.180725
H   86.123421   34.692089   85.541718
H   77.966972   72.446686   69.953194
H   40.343952   96.393944   19.427252
H    5.849070   38.131382   64.683655
H   61.006191   62.971195   46.477173
H   32.712799   39.632420   84.059448
H    7.356866    0.172762   78.758553
H   64.835655   60.558723   27.053308
H   93.082581   48.153103   38.909046
H   30.084898   30.942516    3.432089
H   22.596359   90.326225   58.765419
H   61.281166    8.797555   39.364624
H   18.048134   94.315475   43.993259
H    4.030937   35.655186   61.919861
H   78.933327   69.866821   61.418880
H   78.085678   68.114220    2.681579
H   74.399704   91.373505   75.522324
H   80.485344   44.517662   90.041420
H   79.641045   90.032654   15.886078
H   15.190030   66.228050   65.329231
H   86.793152   93.052017   98.974060
H   38.565510   88.453499   95.776047
H   46.985065   73.540115   79.974602
H   78.140961   58.138821   13.374759
H   90.088326   79.473595   45.053921
H   23.706001   61.265556   92.703217
H   28.753708   92.220764   70.456978
H   52.523643    8.763473   95.159508
H   23.441561   66.761101   24.585253
H   42.569633   69.992210    1.253354
H   16.618990   81.397812   57.324299
