100
TIME:    2.595, STEP:  2595
H   41.832672   84.046654   96.770218
H   29.085655   45.442032   41.691761
H   24.360502   60.598633   92.875816
H   81.912170   25.736746   97.921692
H   71.927872   80.758209   95.344330
H   87.778938   98.396736   35.737286
H   16.966866   36.564690   93.385231
H   15.924416   13.102982   69.930473
H   89.837883   36.794800   36.740902
H    3.927099   53.643715    9.305842
H   58.874451   70.658020   89.785934
H   56.798592   53.764557    8.214434
H   78.193794    4.706194   67.206261
H   26.591896   97.077339   54.721661
H   12.064907   38.231079   26.032549
H   97.184402   84.760834   17.633875
H   15.432820   53.608727    9.621438
H   56.598763   68.505760    9.580341
H   85.683205   87.216400    0.078530
H   22.605492   50.705570   93.012337
H   10.285645   97.876251   86.810226
H   11.165527   47.528885   98.290085
H   51.097038   73.517250   58.104523
H   77.937881   67.804657   14.345937
H   36.771111   80.366058   55.708031
H   34.760220   50.285252   45.942047
H   38.308998   34.605701   51.461346
H   13.583664   77.565544   52.550053
H   67.596497   84.530861   34.504448
H    0.497920   26.614029   89.683983
H   18.184099   54.753551    4.070807
H   29.606941   80.814217   59.031914
H   53.146618   78.619926   31.575048
H   87.745735   35.906418   62.427704
H   16.266621   62.758026   82.745735
H   98.179123   88.335442   11.719411
H   28.693604    9.500929   12.941051
H   56.733406   11.458179    5.564230
H   35.537300   24.875456   92.837769
H   18.773783   69.248802   42.203548
H   57.900227   45.223354    3.482364
H   98.397331   28.322868   24.716261
H   33.593090   79.061386   88.913078
H   13.651022   56.264359   34.459541
H   31.558905   29.505741   78.171974
H   44.608509   12.412434   93.706490
H   62.006161   65.962616   50.368271
H   56.378002   22.101278   29.141792
H   40.883400   17.531956   40.958740
H   80.309319   70.243828    2.167898
H   43.346638   19.113085   80.778107
H   31.244081   22.942204    3.703944
H   62.710335   37.055420   52.156853
H   16.600300   64.871147   46.326141
H   34.172478   85.996780   22.425184
H   96.813156    9.804729    4.286880
H   60.762074   14.669612    2.793465
H   32.827484   31.822227   46.715042
H   94.939629   48.414181   12.263281
H   87.775726   27.248228   89.802620
H   23.395391   57.890842   12.069831
H    6.812248    3.788956   77.939713
H   50.250584   30.194166   55.531174
H   21.232958   55.910652   56.689098
H   35.321766   53.586376   37.228378
H   41.930183   13.267738   99.622002
H   79.366615   38.078564   92.348282
H    1.111229   65.947998   90.258606
H   86.236534   63.326180   97.477760
H   82.958557   78.664619   96.268799
H   39.630211   18.835802   31.020977
H   59.996590   65.402084   46.615868
H   37.793259   89.947655   95.209221
H   73.083580   85.162964   48.979988
H   87.286888   32.336979   98.116074
H   87.005074   73.888786   21.319351
H    2.563723    1.629117   36.943775
H   53.898144   81.040474   57.753529
H   85.952408   45.896397   46.632515
H   72.261635   67.626266   97.359726
H   61.664326   56.128124   35.085300
H   36.029655   61.174881   69.785133
H   81.986679   50.571320   77.060852
H   28.682842   34.219086   26.405212
H   25.974762   86.565506   96.196388
H   91.565796    4.372253   21.988049
H   40.468910   14.675293   47.282974
H   97.729538   97.532608   68.758339
H    9.535879   49.686440    6.969435
H   36.905544    2.508232   16.983299
H   30.220734   13.554753   88.263382
H   70.294800   90.667290   82.969093
H   51.783985    5.389328   19.671520
H   98.043770   70.639839    1.786679
H   11.724274   17.284927   75.717369
H    8.257995   93.258125   33.413986
H   56.623337   16.602032   87.948555
H   16.392881   38.332550   14.514082
H   85.093742   48.036320   27.679443
H    0.399554   12.048557   47.750275
