100
TIME:    3.041, STEP:  3041
H   11.672077   43.146080   96.361893
H   16.679375   69.624298   69.825363
H   32.026810   92.686188   87.642448
H   81.987030    7.360411   73.476624
H   67.933090   16.507061   83.251099
H   80.864632   97.913551   79.906639
H   93.591927   66.681770   28.263100
H   80.869690   51.686375   28.979351
H   78.874352   93.913544    8.666334
H   91.739143   60.047615   26.771952
H   17.388611   88.603912   46.824680
H   39.774834   76.120361   76.467506
H   49.823700   77.722580   22.878563
H    4.508752   95.702644   88.661217
H   17.490528   98.393265    4.593390
H   79.252121   45.752167   80.611671
H   79.567970   83.109024   50.222576
H   66.128990   46.816887   94.117371
H   92.631538    5.925449   23.574350
H   10.590523   41.235828   23.378016
H   83.819473   53.476883   74.703384
H   53.923981   48.120956   60.309036
H   45.142296   69.889961   45.344360
H   36.499680   73.153717   81.222771
H   20.820400   44.993317   58.998451
H   32.715191   36.997669    4.138823
H   99.849579   16.065798   60.311794
H   75.950615   98.383324   67.293236
H   77.294220   24.995153   13.422758
H   17.598969   15.575604   25.139091
H   35.737339   94.748215   68.784706
H   57.767769   68.489601   17.743431
H   84.561615   45.987938   71.754250
H    6.590249   95.033333   43.637939
H    5.179613   29.043976    9.904938
H   36.957790   23.370951   10.186490
H   71.469795   93.166977   48.084164
H   38.300926    3.295324   37.036144
H   16.710106   15.159018   49.616547
H   76.764709   27.494761   77.294411
H   27.420603   60.525341   13.990502
H   58.313408   48.341011   45.669556
H   37.434750   81.735916   21.128548
H   85.171036   63.740112   78.066368
H   92.871483   11.910130   16.337492
H   38.854527   20.919209   95.516731
H   65.492477   90.217133   54.652283
H   56.401821   26.693235   56.737770
H   53.919182   80.593681   23.166815
H   89.659966   77.028831   70.972076
H   43.312611   76.054459   85.480652
H   52.919285   81.557419   74.426628
H   71.959373   39.641479   26.252399
H    6.273075   57.593155   66.007416
H   98.663864   25.089508   26.213011
H   97.371201    9.336006   89.103989
H   89.038200    1.799749   45.211906
H   99.617424   89.702438   35.227493
H   30.113960   67.258392   78.024605
H   58.342941   61.530529   77.117317
H   51.529518   37.151325   77.295029
H   90.983574   99.636887   57.760590
H   80.514351   99.770317   24.939987
H   51.860153   58.336784   44.578854
H   53.026066   17.964077   78.764046
H   14.531609   91.095802   25.991844
H   43.583717   53.496243   13.881606
H   70.303062   91.454712   11.579986
H    8.464125   31.279457   69.507484
H   91.996155    1.095389   95.329651
H   25.467346   88.489799   25.670216
H   23.223097   50.600296   79.270081
H    8.712336   67.884483   83.776115
H   63.269909   56.940033   22.472878
H    8.791131   32.973286   31.926910
H   97.546669    2.471729   91.309021
H   43.058186   62.974167   44.831257
H   74.852036   51.877834   82.383209
H    7.340861   44.586353   51.610680
H   50.389015   43.334827   58.936325
H   70.389786   60.742199   61.742130
H   69.494751   64.087601   32.491432
H   10.202894   58.016449   19.539982
H   59.365078   72.383881   85.668488
H    4.257353   58.669437   52.961555
H   81.303223   20.754601   52.959515
H   70.256233   82.247444   68.549911
H    4.908094   61.824570   64.117043
H   18.792358   24.853952    3.320454
H   97.472809   84.160355   32.926598
H   48.472870   37.637035   97.682083
H    3.294531   24.206469   91.469063
H   80.388657   18.761557   54.169640
H   41.152287   97.691383   31.858040
H    4.012252   77.335724   85.966331
H   45.095734   75.645699   10.377432
H   21.222061   42.197216   62.298927
H   18.029585   42.129974    7.377748
H   63.847221   49.958851   90.320778
H   28.099283    0.598326    4.789952
