100
TIME:    9.869, STEP:  9869
H   49.921539   16.987602   90.110672
H   27.918091   39.651241    0.376296
H   49.409893   83.919594    7.492495
H   83.133087   26.048330   99.208267
H    6.764570   63.800858   98.117607
H   74.981079   90.516273   56.106590
H   35.735935   27.740259   62.221828
H   44.202362   42.395428    2.054214
H   11.029015   37.427917   78.869698
H    5.199266   58.089222   94.131996
H   82.264618   63.341721   89.114754
H   79.169640   18.372070   90.443230
H   14.436384   64.630074   44.353592
H   66.427673   74.656868    8.274601
H    0.474931   88.485107   76.298851
H    4.711035   48.550156   13.827401
H   30.500832   34.728249   71.802353
H   12.109992   14.613192   57.417053
H   98.982498   92.368973   83.308014
H   26.627972   96.233856   88.260033
H   78.635773   73.728523   89.380600
H    8.530991   57.185226   78.841782
H   53.976830   14.366184   49.987305
H    2.085087   54.890106   74.117340
H   76.612656    3.498604    9.420109
H    1.071243   35.165390   62.165920
H   11.063694   32.233685   95.779770
H   99.824684   17.091267   92.988152
H   25.763165   44.484653   90.659653
H   79.414619   46.581863   67.945808
H    4.461849    7.028573   28.575226
H   88.892105   79.840622   85.641335
H   65.517860   46.419083   86.874413
H   95.090302   69.287743   55.985863
H   35.343742   12.448158   25.490866
H   30.532202   58.417805   88.400551
H   26.364841   43.111580   86.104019
H   56.086277   78.348747   18.869431
H   28.497997   66.388206   87.933311
H   33.644215   88.279922   14.506639
H   60.775116   94.813065   74.853844
H   68.508125   80.308945   83.781242
H   96.219757   22.690994   14.321339
H   49.183323   78.300026   45.671085
H    0.570804   42.489628    0.617642
H   50.739830   51.146893   23.255259
H   18.849979   61.552448   20.204508
H   56.789974   97.017502   79.214981
H   53.508690   15.100231   50.796700
H   32.933083   80.954430   93.492256
H   46.234257   17.111366   52.224121
H   84.762177   47.969505   26.197577
H   13.575535   79.232544   29.695869
H   48.145576   46.183838   67.307991
H   55.010567   23.476538   84.276474
H    5.887587    2.152493   56.662735
H   21.904129    4.780394   94.611382
H   91.190140   44.882042   59.352562
H   68.628227   55.772926   53.842625
H    7.767488   86.352188   82.912758
H   82.248322   19.617350   44.938084
H   48.647820   36.082809   48.815346
H   44.089924   33.877304   56.740707
H   20.726273   95.523605   59.199150
H   24.039761   72.622871   14.625369
H   95.081909   51.656334   29.717157
H   95.759651   89.559174   43.537975
H   98.646263   81.955757   37.997879
H   48.772690   40.662933   41.266796
H   30.459229   44.337818   80.911636
H    8.638058   23.909161   43.771584
H   60.577950   23.911522   79.438873
H   63.515213   30.149206    8.706379
H   12.956608   24.811642   16.771189
H   37.869743   42.846828   49.575764
H   58.969940   40.083210   31.871178
H   63.098579   71.613937   65.774284
H   95.635597    5.419983   59.479469
H   34.767624   24.530354   27.796160
H   15.540746   71.407936   70.698097
H    4.017442   31.381693   69.840126
H   81.857262    8.480989   61.362206
H   42.109528   72.162880   69.817429
H   29.120884   56.671097   62.035744
H   71.793671   31.554787   91.065506
H   24.155109   71.560493   27.116673
H   26.283113   85.795143   94.135094
H   14.748352   15.350272   93.256882
H   60.494633   44.681770   47.475105
H   93.786438    3.237160   77.008347
H   27.903463    6.328161   41.877342
H    8.504961   37.722198   21.570383
H   18.075275   23.633604   82.189507
H   97.652504   11.655099   97.490196
H   85.961029   65.725716   42.863991
H    9.060576    6.016726   57.702255
H   79.247673   34.039246   69.612762
H   19.227854   74.777695   80.754051
H   38.576500   79.418922   18.405033
H   52.212006   25.381001   47.028301
