100
TIME:    5.030, STEP:  5030
H   77.164223   60.744698   94.540909
H   61.558784   77.432739   95.262939
H   66.216766   35.781830   64.303505
H   82.320877   25.414848   64.453255
H   50.117798   75.934189   29.320004
H   50.022427   95.758720   76.884392
H   89.348030    0.986313   83.805557
H   24.538216   23.761105   46.356480
H   29.980934    2.679322   83.466606
H   37.382774   88.606712    4.657443
H   32.376678   68.635544   55.233807
H   63.862206   75.818626   34.887642
H   23.092300   57.416420   25.215820
H    6.025659   89.571999   40.025696
H   41.683815   20.727533    8.984066
H   99.277679   71.786819   15.507004
H   19.624580   14.666881   31.289091
H    8.631125   50.074383   25.159883
H   23.612366   89.367371   28.362123
H   56.997887   98.998085   58.798409
H   65.789391   55.465683   20.721794
H   44.611343   50.761383   90.927338
H   18.586281   53.713554   88.435410
H   51.698986   97.001678   33.501244
H   49.682037   87.255264   73.687538
H   23.616743   77.958649   17.419912
H   28.335985   33.385448   99.767860
H    8.125461   91.223114   33.037453
H   20.543907    5.453200   19.401264
H   93.866409   66.347160   83.259407
H   14.016776   73.104752   11.421349
H   83.354561   13.540006   33.611732
H   24.663364    0.464100   50.939079
H   90.630524   12.753181   59.845085
H   55.739365   78.690598   31.020065
H    9.887204   79.399681    3.612938
H   62.240555   20.326405    4.809701
H   56.091312   66.904762   77.394142
H   32.754665   71.822258   56.867798
H   89.423637   41.291626   33.784016
H   91.487259   28.774900   60.850323
H   79.552727   37.606842   39.111942
H   54.567173   93.663361   64.794838
H   58.159924   97.071167   72.542282
H   20.340815   33.433403   86.540916
H   13.193413   58.856373    3.595328
H   81.031540   98.385704   73.749687
H   56.508045   47.177338   79.805840
H   12.063736   15.865612   43.825821
H   31.371899    7.291166   31.859322
H   43.160862   84.029221    6.451153
H   49.580666   96.992645   43.852394
H   13.208573   51.174377   10.733969
H   60.205498   25.134117   53.776085
H   40.299255   99.409431   43.130390
H   99.859879    7.242651   21.393738
H   15.132741   44.408318   34.382393
H   51.511124    1.865911   83.993515
H   86.982262   51.299133   25.326817
H   27.090908   14.410069   20.545418
H   76.996765   44.653225   22.217873
H   20.391348   81.123550   67.764435
H   15.546620   64.044968   88.548248
H   88.440712   69.163696   90.574158
H   31.971079   59.107288   63.991077
H   92.345268   92.216972   43.596184
H   84.001923   22.263294    9.910255
H   32.909386    5.207828    6.665687
H    7.595543   88.362617   44.760414
H   32.294373    1.135852   91.141388
H   62.307457   53.158997    1.808148
H   59.219711   84.588928   24.894444
H   79.025726   69.500526   32.779274
H   19.479443   31.070610    4.288507
H    4.688632   35.810986   82.705902
H   44.571739   29.948153   57.473263
H   23.646002   90.579292   80.006599
H   68.298874   21.820629   92.227272
H    2.721035   38.744030   73.804802
H   52.844513   35.008717   87.582306
H    9.301229   81.319321   80.620461
H   18.732025   77.077286   66.172020
H   36.033699   91.238708    8.974969
H   96.206177   42.587326    4.004880
H    7.409544   34.255562   60.150307
H   35.526386   93.814217   91.081558
H    3.097060   37.630951   63.393341
H   36.920639    2.581023   43.433617
H   60.070419   14.110132   87.051888
H   21.618784    2.326042    4.028843
H   29.871025   45.036800   39.686199
H   50.467960   73.783463   29.369818
H    7.886197   78.447334    7.982197
H   33.396469   18.338942   65.964333
H   69.625313   99.172050   31.669094
H    9.379012   97.103058    7.642902
H   63.344566   56.342022   47.909195
H   25.328695   59.065125   75.543495
H   69.095520   58.532650   23.721603
H   51.642658   49.554539   13.184363
