100
TIME:    6.608, STEP:  6608
H   70.450272   16.035448   93.096207
H   17.978874   62.943462   94.760658
H   93.353088   49.309669   45.775394
H   82.585739   60.400909   77.956543
H   35.983795    2.417743   86.535797
H   25.546764   94.049156   33.158344
H    6.645652    7.540633    7.207351
H    0.510524   60.276882    1.468514
H   91.190620   50.961166   84.137032
H   94.271461   11.265455   66.447670
H   85.594971   32.129597    3.233864
H    3.630170   54.915470   22.564190
H   22.396591   61.991558   68.417412
H   27.891926   84.708168   60.112926
H   60.866768   79.773705   33.123837
H   35.831177   33.769264   84.519043
H   92.730965   19.039211   74.940651
H   42.376301   73.293823   70.456581
H   48.186398   55.568733   11.498019
H   14.487526   65.480995   66.235985
H   72.148636   98.369354   77.889305
H   95.895737   52.856201   56.546036
H   97.515877   40.879784   43.288467
H    5.079113   15.879122   16.305613
H   93.244942   62.113632   85.341469
H   16.423330   31.310410   69.029671
H   92.263588   67.792191   31.080534
H   74.977341   64.878807   85.198349
H   54.855583   48.621258   44.807892
H   54.372913   27.292046    8.705914
H   76.122932   14.608047   86.575081
H   82.990479   69.937164   87.528419
H   35.815556   85.009911   93.097778
H   57.305702   68.138962   93.367462
H   16.501465   59.351723   27.087061
H   47.059566    2.995311   98.650887
H   13.592530   62.536255   29.149755
H   90.872139   38.023968   88.750008
H   66.148560   37.438347    3.948338
H   40.793659   93.564209   57.939091
H   83.641922   82.919319   98.027321
H   43.327789   67.516418   17.310528
H   68.155731    3.127326   78.776451
H   57.399303   23.557760   26.831182
H   83.460411   71.172470   21.574797
H   92.828026   88.954330   10.006948
H   93.359665   84.203140   88.894981
H   56.592319   63.430237   77.443527
H   58.185852   85.175453   80.878922
H   64.475342   31.311247   21.500231
H   43.047855   31.684160   23.085014
H   26.273579   50.566811   40.262245
H   45.942860   60.324158   19.085913
H   23.666573   99.384445   23.408718
H   14.656052   37.698418   56.554081
H    1.826015    5.582748   67.674881
H   15.171134   98.875130   84.463173
H   34.009918   52.843605   43.349228
H   11.436513   17.974834    4.187155
H   22.959381   35.701199   75.663353
H   76.538200   71.267715   99.185074
H   64.387093   66.435745   96.361816
H   22.677164   56.365150   80.340057
H   96.798813   77.759674   47.734165
H   94.605072   33.073933   10.943126
H   95.407715   13.769732   36.900375
H   57.396408   76.816742   86.095963
H   23.906166   95.455299   82.103210
H   86.243813   74.977600   45.791119
H   64.258507   80.505791   87.818573
H   12.198219   45.793106   82.882088
H   29.107603   32.218475   40.428734
H   76.137070   91.448334   92.317932
H   84.741020   31.199425   10.528929
H   80.768669   38.062313    2.328841
H   81.875404   31.083195   51.294167
H   66.930267   53.862286    7.935484
H   42.436184   18.638941   79.375282
H   78.390038   34.108944   91.406090
H   75.462631   49.050880   51.636040
H   40.181084   97.644455   74.933868
H   37.156029   87.324661   34.179424
H   35.846115   17.627111   59.256775
H    4.769956   77.619896   59.877476
H   30.574953   35.551132    7.180899
H   99.204758   51.778282    0.662642
H    8.488176   22.897362   38.638374
H   62.303825   76.295654   27.063156
H   92.817001   26.249075   74.145882
H   82.102982   37.405392   60.434875
H   94.449211   30.245224   73.010666
H   67.223984   92.464432   59.431664
H    9.039029   25.791912   30.011362
H   85.904549   14.072534   72.366302
H   42.344521   57.826118   67.931061
H   39.715317   34.788239   26.137344
H   38.090050   46.899170   57.157288
H   25.522356   13.423448   46.225288
H   93.923332   65.337151   91.547478
H   49.658550    9.063351   61.171795
