100
TIME:    9.270, STEP:  9270
H   90.430084   71.918465   90.659073
H   44.460953    7.190776   62.609562
H   39.113667   40.824425   14.524593
H   83.032547   50.726921   32.041885
H   12.132044   15.788366   14.358385
H   84.267334   91.165215   96.784790
H   67.127769   87.292595   15.379253
H   91.282578   90.574997   57.053963
H   25.753578   95.019150   16.573359
H   21.562178   49.488468   70.678719
H   37.982208   39.239502   46.814476
H    2.029221   88.347939   33.079781
H   52.632553    0.888420    3.880818
H   96.087021   76.503151   62.692410
H   93.199409   41.990730    5.107463
H   28.797180    0.940737   63.549866
H   78.668709   95.109917   17.273024
H   99.299942   43.760643   78.181717
H   89.650543   67.243073   51.740086
H   42.764668    8.955130   47.477287
H   14.181711   33.359619    5.640424
H   51.104275   56.390045   29.852127
H   61.974342   19.235903   67.124832
H   57.741978   47.724335   18.603064
H   98.036850   51.003830    4.998626
H    3.896935   52.823898   18.533358
H   62.717560   57.135654   83.897751
H   50.365494   89.131973   73.190880
H   12.738358   90.139153   18.974037
H   56.445763   61.406967   20.326893
H   80.889107   53.314007   75.966202
H   51.070728   96.393188   41.093727
H   23.323151   90.245453   32.911766
H   69.781601   24.182404   81.221443
H   50.251106   57.800911   89.046844
H   78.462875   11.498536   90.283394
H   68.911835   65.047615   38.904987
H   80.845116   89.307625   76.598793
H   53.783848   79.440147   45.980301
H   90.063065   44.357201   67.380020
H    1.713167   74.257172   60.741665
H   18.988922   77.955475   53.209797
H   91.064789   19.096684   71.053642
H   87.426918   68.246010   87.105415
H   52.551453   66.157433   49.372066
H   58.467712   39.721874   20.821730
H   14.166169   28.973078   14.452847
H   56.753414   90.847992   42.152225
H   36.000992   64.707741   74.691223
H   20.360991   71.832695   35.374249
H   42.898151   74.688072   51.099899
H   55.651226    3.551425   65.518257
H    1.150883   75.759338   64.487015
H   62.015549   55.959084   40.875069
H    2.703258   70.984070   79.185486
H    5.141533    2.782583   77.054108
H   83.929550   22.064796   37.641670
H   35.792175    1.449644   74.780907
H   21.384010   30.459795   99.827049
H   47.293720   40.311581   99.949745
H   44.461140   47.472561   91.636284
H   69.907494   41.658218   75.918053
H    3.400459   74.714745   97.798737
H   79.594727   92.260620   75.460587
H    0.264261   20.463581   58.843479
H   31.878006   81.434502   94.299110
H   43.819351   68.847900   14.617596
H   40.023544   47.698982    9.362213
H   18.916834   83.703262   78.835022
H   18.293869   14.253391   82.182098
H   27.661156   64.668983   50.955635
H    9.905620   43.800194   35.533207
H    2.570533   59.776707   24.066174
H   26.141079   62.720287   52.361427
H    9.016538   41.964817    4.159330
H   44.807487    1.692364   72.175003
H    8.696385   23.458096   55.149780
H   67.493492   44.584984   26.397186
H    6.044769   26.289806   21.110239
H   44.915489    4.037995   22.302330
H   92.291176   25.184763   34.038689
H   36.909424    4.592413   11.476061
H    4.221216   62.145420   12.770497
H   87.910179    5.412945   16.746555
H    0.959457   69.024887   49.131073
H   37.942822   49.557480   85.520050
H   86.277184   29.347649   65.572548
H    5.115748   63.281288   99.462952
H   48.064213   78.033684   52.374153
H   46.746662   27.883209   55.595085
H    3.389364   73.982346   29.227562
H   64.185028   92.672363   10.159074
H   79.678436    5.659765   35.867912
H   43.141457   75.569687   51.908947
H   96.316666   19.379177   29.099611
H   59.585587   29.669233   88.641205
H   26.793121   99.665245    4.061615
H   20.384066   45.139538   92.782310
H   67.111626   76.832298   68.578728
H   15.007545   40.750919    4.730864
