100
TIME:    5.104, STEP:  5104
H   72.159828   53.958504   94.473160
H   59.515022   81.442352   99.928589
H   67.489319   41.105774   63.434818
H   82.333298   22.365860   60.396843
H   49.454987   81.865616   27.313786
H   48.874645   95.678551   84.212578
H   85.469398    5.983297   89.592453
H   18.721962   30.162823   39.561817
H   28.161873   95.564499   78.808861
H   35.360466   89.669243    7.555337
H   25.493378   71.613113   48.106045
H   61.037636   79.527885   29.620283
H   18.370193   52.941597   17.862793
H    2.361723   89.343910   45.657333
H   42.583748   14.117728    5.426870
H   96.302368   65.314529    9.364285
H   13.673903   19.561222   38.025604
H   10.213489   46.474087   22.594736
H   24.764946   92.471405   32.260517
H   55.004372   97.426308   63.836678
H   61.398125   48.098541   18.713318
H   51.705795   50.859619   84.625549
H   17.598274   53.111717   86.318253
H   44.823025   97.886932   28.005310
H   47.035309   81.387070   74.234047
H   23.279409   75.771484   10.461241
H   21.954874   30.309235    1.236170
H    1.881682   94.677185   35.483757
H   22.152946   12.166986   15.903439
H   96.703964   64.515678   89.142281
H   16.929234   79.740768    5.566704
H   88.026985   11.495538   26.761177
H   29.875805   95.049843   57.605583
H   93.757141    5.971623   56.727501
H   53.899979   73.096786   35.525940
H   16.319693   85.195610    3.380192
H   69.338257   17.616161   10.640492
H   53.033009   65.550911   82.616463
H   29.630871   70.209831   49.696564
H   82.453392   34.363724   39.606480
H   86.429794   31.313795   62.593731
H   72.902031   40.928238   42.588032
H   55.204578   94.107117   70.140236
H   53.434994   98.313232   79.777878
H   13.921877   30.513985   92.873192
H   12.238575   60.267811    3.896140
H   81.609665    2.410135   74.459923
H   56.511997   47.939514   84.384544
H   14.226624    9.737148   40.873657
H   32.923916    8.417494   26.683861
H   43.155216   76.885086    7.231255
H   53.177010   90.126282   38.994225
H   14.743512   51.603455    6.436140
H   58.492012   23.926491   57.041588
H   34.407349    5.894672   43.759892
H   99.952469    7.164810   18.874603
H   19.823822   42.273094   41.420387
H   46.000870   94.877541   82.087509
H   92.818840   54.425751   19.645779
H   22.207897   20.098164   18.440681
H   81.664673   41.212139   16.448479
H   17.765226   80.434769   64.416504
H   20.570494   58.995407   83.473846
H   93.521889   69.566803   88.565399
H   34.908562   53.196751   70.882286
H   87.799309   88.538200   47.971642
H   78.064850   24.821667   13.483170
H   27.797722    9.440120   10.203315
H   11.283779   83.045448   40.119041
H   33.793320    4.857889   90.985565
H   59.957695   48.124115    0.920406
H   53.118347   82.133026   30.312389
H   74.200867   65.839821   30.881737
H   17.850643   26.387177   99.891808
H    8.256389   35.916561   88.315521
H   46.321358   34.691025   52.494274
H   30.364729   84.165718   81.315285
H   71.775528   16.981937   96.313667
H    6.269473   38.526669   74.630211
H   49.215424   30.978287   81.207123
H   10.749224   82.084885   85.043343
H   24.284622   77.560562   59.984276
H   40.714592   92.476257   16.022421
H    1.297446   48.919601   97.246063
H    3.806216   29.626610   52.976814
H   33.823063   96.532082   96.220322
H    8.039358   32.250549   66.921936
H   38.111893   96.656464   42.664101
H   61.606064    9.990004   86.446663
H   15.076184   99.281418    6.674090
H   32.899406   49.032299   41.248943
H   55.943211   79.349045   30.779562
H   12.629619   80.667244   13.704731
H   40.549072   22.827597   70.954048
H   68.345985   92.543938   33.369541
H   15.491103   94.180817    3.820587
H   57.470726   60.588757   43.653427
H   25.600256   59.695190   74.359016
H   65.570312   58.851635   17.523132
H   56.238865   47.655872    6.055614
