100
TIME:    4.869, STEP:  4869
H   88.052162   75.509254   94.688309
H   66.005348   68.709122   85.112000
H   63.448349   24.199066   66.192680
H   82.293854   32.048454   73.277596
H   51.559860   63.029327   33.685120
H   52.519627   95.933144   60.940403
H   97.786674   90.115479   71.215149
H   37.192497    9.832906   61.139462
H   33.938622   18.159027   93.600349
H   41.782661   86.294991   98.352814
H   47.352509   62.157322   70.742035
H   70.006355   67.748482   46.347984
H   33.366074   67.152184   41.213623
H   13.997230   90.068245   27.773081
H   39.725853   35.108368   16.723454
H    5.751453   85.868423   28.871864
H   32.571205    4.018159   16.632627
H    5.188291   57.907459   30.740812
H   21.104725   82.613998   19.880487
H   61.335129    2.417311   47.836769
H   75.343361   71.493622   25.091587
H   29.176117   50.547653    4.637947
H   20.735863   55.022957   93.041656
H   66.658630   95.075653   45.459061
H   55.440460    0.022560   72.498512
H   24.350672   82.717209   32.559704
H   42.219666   40.078632   96.574196
H   21.710026   83.708176   27.715090
H   17.043159   90.846001   27.011398
H   87.692810   70.331871   70.460182
H    7.680116   58.667385   24.159157
H   73.188881   17.987968   48.516319
H   13.322712   12.243288   36.434929
H   83.828018   27.507843   66.627937
H   59.741272   90.860916   21.216743
H   95.891846   66.789619    4.119392
H   46.799187   26.223015   92.123581
H   62.745190   69.850304   66.032066
H   39.551029   75.330376   72.470078
H    4.588427   56.364494   21.116751
H    2.490554   23.251089   57.057232
H   94.022484   30.380701   31.549097
H   53.180386   92.697891   53.166130
H   68.440369   94.368835   56.800537
H   34.306240   39.785110   72.763939
H   15.270830   55.785542    2.940857
H   79.773727   89.630150   72.204445
H   56.499447   45.519089   69.844063
H    7.357973   29.199162   50.248772
H   27.995213    4.840643   43.119446
H   43.173145   99.572540    4.753905
H   41.756187   11.932196   54.422195
H    9.869044   50.240845   20.084650
H   63.933487   27.761520   46.671410
H   53.118134   85.298347   41.760799
H   99.658432    7.412007   26.874557
H    4.926219   49.053871   19.070000
H   63.499649   17.070601   88.140366
H   74.283760   44.496628   37.687195
H   37.714756    2.034681   25.124641
H   66.840912   52.139912   34.770203
H   26.104937   82.622116   75.048447
H    4.616303   75.031174   99.588501
H   77.385719   68.286667   94.944565
H   25.580679   71.965942   48.998051
H    2.235677    0.220777   34.076607
H   96.919067   16.697105    2.136850
H   44.030708   95.999954   98.968956
H   99.571091   99.931053   54.858536
H   29.032591   93.038574   91.480408
H   67.419777   64.113266    3.739621
H   72.495087   89.932175   13.106750
H   89.523056   77.465034   36.907700
H   23.023182   41.259686   13.854206
H   96.926033   35.581287   70.501190
H   40.765137   19.629545   68.306412
H    9.028231    4.533371   77.159325
H   60.734798   32.348072   83.336601
H   95.000084   39.216938   72.008980
H   60.740234   43.777782    1.452617
H    6.150773   79.653702   70.997704
H    6.651612   76.025833   79.634544
H   25.849596   88.546204   93.642380
H   85.129074   28.810205   18.709457
H   15.249082   44.326660   75.757500
H   39.232265   87.901024   79.901276
H   92.344215   49.336960   55.716263
H   34.328857   15.470829   45.107834
H   56.729355   23.073954   88.368660
H   35.853481    8.950439   98.273422
H   23.282249   36.343891   36.286175
H   38.555592   61.674561   26.302671
H   97.565971   73.615715   95.531784
H   17.834724    8.573083   55.109333
H   72.408714   13.593750   27.969971
H   96.080994    3.460697   15.959021
H   76.124138   47.102505   57.168365
H   24.737867   57.694305   78.120537
H   76.765228   57.838642   37.207466
H   41.642803   53.685421   28.693960
