100
TIME:    9.075, STEP:  9075
H    3.617214   89.801003   90.837601
H   49.846542   96.624023   50.313457
H   35.761806   26.795387   16.813709
H   82.999817   58.760674   42.731239
H   13.879385    0.158523   19.645157
H   87.290405   91.376472   77.474030
H   77.348488   74.126167    0.129982
H    6.609192   73.704117   74.957909
H   30.547050   13.767890   28.847891
H   26.889002   46.688557   63.043678
H   56.120636   31.393261   65.598579
H    9.472343   78.573540   46.960320
H   65.067017   12.690966   23.259232
H    5.742175   77.104195   47.852283
H   90.830940   59.409096   14.484695
H   36.637833   17.996422   79.736389
H   94.349403   82.211281   99.521400
H   95.128342   53.249397   84.941971
H   86.612595   59.062626   41.467297
H   48.017849   13.096231   34.200768
H   25.753349   52.773033   10.933485
H   32.409435   56.131180   46.458191
H   64.577873   20.821081   72.703827
H   75.860092   45.391571   33.085445
H    5.011029   66.468567    3.559217
H    4.816736   58.572495   36.883984
H   79.532021   65.242081   80.029648
H   66.818573   80.030029   66.746025
H    8.497951   72.447044   28.191280
H   48.968422   66.233170    4.825432
H   73.215385   35.828693   91.393982
H   38.758259    1.781326   59.145866
H    9.587095    4.512611   15.344625
H   61.542542   42.053040   89.436699
H   55.104088   72.565163   77.183670
H   61.511662   96.224899   90.896339
H   50.209167   72.188728   23.539694
H   88.905647   92.875206   62.837395
H   62.015469   83.689110   64.877472
H    8.430243   62.613159   52.037369
H   15.039614   67.565353   56.147549
H   35.422409   77.190781   43.255383
H   89.386627   17.926582   56.968540
H   99.876259   64.973000   68.038643
H   69.465958   73.849007   32.684177
H   60.983467   36.002544   20.029512
H   12.641616   18.367781   12.580164
H   56.741512   88.839554   30.086720
H   30.301491   80.858559   82.469086
H   16.268240   68.863182   49.009312
H   42.878460   93.510445   49.093399
H   46.174374   21.646008   78.318703
H   97.106926   74.628662   75.811630
H   66.531647   59.141342   32.270027
H   18.229908   53.895103   77.528152
H    4.898661    2.987704   83.692368
H   71.566498   27.691399   19.095602
H   50.312439   19.865469   79.803490
H    6.004558   22.219992   14.797342
H   60.161114   25.322681    5.495995
H   32.159084   56.540287    6.838515
H   76.828423   43.473251   84.740303
H   90.162399   88.021019   11.170471
H   66.205139   91.198380   80.753937
H   92.525055   36.038647   40.684223
H   43.857216   91.128563   82.769188
H   59.464340   62.105915    5.202539
H   53.493469   36.546944    0.040085
H    9.197741   97.714722   91.064178
H   14.333526    4.459280   82.595688
H   33.854061   77.936577   53.294350
H   25.963312   50.274803   21.240005
H   15.284983   69.422508   29.066441
H   30.433186   75.062355   63.947884
H   99.623703   41.677685   89.374329
H   40.197006   89.195305   85.296799
H   90.986160   40.336414   51.690804
H   58.332958   57.334846   15.627494
H   96.693687   26.862583   18.933687
H   54.478630   14.660843   39.101799
H   88.473656   23.167398   22.383797
H   22.277084    3.326539   27.789785
H   91.887611   58.884312   94.199684
H   74.493813   88.726418   34.556194
H   10.454163   81.224289   68.034195
H   42.431309   42.394051   71.978714
H   73.253578   43.525734   56.274223
H    1.979855   78.884621    1.484358
H   44.017582   88.891151   53.969002
H   63.987988   35.906548   48.625061
H   95.409050   63.452259   25.109520
H   49.757000   78.006302    6.444129
H   67.178513   99.808617   20.788263
H   24.329119   63.742664   38.710842
H   99.687866   36.846638   24.619307
H   43.479401   37.369507   98.713150
H   42.271233   88.474525   15.276510
H   20.760462   35.491596   96.698021
H   76.401024   75.990242   84.911049
H    2.895548   45.754162   23.516232
