100
TIME:    2.672, STEP:  2672
H   36.625397   76.985344   96.699722
H   26.943764   49.617134   46.548908
H   25.684057   66.138412   91.972298
H   81.925095   22.564150   93.701355
H   71.238190   86.930099   93.256485
H   86.585213   98.313316   43.363148
H   12.931398   41.764328   99.406731
H    9.872368   19.764292   62.860844
H   87.945076   29.391586   31.893749
H    1.823099   54.749321   12.321292
H   51.712097   73.756302   82.368622
H   53.859512   57.624191    2.733632
H   73.295525    0.047486   59.553131
H   22.779259   96.840004   60.581608
H   13.001617   31.353086   22.331236
H   94.088470   78.026154   11.241980
H    9.240809   58.701447   16.631052
H   58.244247   64.761269    6.910614
H   86.882805   90.446274    4.135003
H   20.531158   49.070660   98.254860
H    5.716391   90.211029   84.720032
H   18.547592   47.631104   91.732819
H   50.068977   72.891014   55.901535
H   70.783752   68.728149    8.627128
H   34.017082   74.258789   56.276108
H   34.407154   47.991207   38.725060
H   31.668915   31.404669   52.989338
H    7.086760   81.159645   55.095531
H   69.270767   91.516975   30.864618
H    3.450329   24.708298   95.805351
H   21.214529   61.658009   97.978813
H   34.468788   78.686424   51.903633
H   58.570667   72.986153   38.511818
H   90.999107   28.849808   59.183731
H   14.352498   56.937439   87.434868
H    4.874052   94.383965   11.454759
H   36.078735    6.680811   19.008299
H   53.551117   10.048855   10.997793
H   32.286865   23.197954   85.375809
H   11.521254   62.040466   48.262058
H   52.638317   47.865177    5.296829
H   91.477013   31.778915   28.333567
H   34.256336   79.523132   94.475182
H    8.734247   57.555016   41.987885
H   24.879740   26.467968   84.760963
H   43.615108   13.881092   94.019020
H   62.608311   70.150055   51.107887
H   56.382114   22.894060   33.906120
H   43.133972   11.155041   37.886894
H   81.923668   71.415230   96.782257
H   43.340763   11.679029   81.589981
H   34.986164   15.797180   98.649010
H   64.307533   37.501892   47.684494
H   14.817348   63.614967   49.724030
H   28.042297   92.746735   23.078444
H   96.909500    9.723806    1.665619
H   65.643501   12.447679   10.116924
H   27.093842   24.550312   44.731766
H    1.012738   51.667553    6.351931
H   82.694168   33.166920   87.612556
H   28.252832   54.310253    6.066396
H    4.079662    3.072104   74.456055
H   55.473721   24.943125   50.248703
H   26.520422   56.329514   54.598316
H   38.378338   47.436222   44.399544
H   37.199928    9.439827    4.174709
H   73.188850   40.740360   96.065750
H   95.792305   70.351624   93.939651
H   90.073845   57.793449   92.648811
H   84.518860   82.537178   96.106659
H   37.185188   13.596578   30.097191
H   53.647873   62.846619   52.253754
H   32.772797   86.138542   93.235344
H   71.389336   80.290543   44.403648
H   90.999657   32.446835    3.953263
H   88.825035   78.823479   16.138218
H    9.554880   94.955460   38.305515
H   57.515743   76.005913   62.006176
H   89.645203   45.670223   47.491974
H   68.485420   63.432873   90.726089
H   63.171169   56.924725   39.687489
H   41.807358   61.677750   63.346535
H   86.857925   51.856689   84.394745
H   33.980000   40.808075   19.372101
H   22.225277   81.749481   88.732079
H   89.794006    7.200596   27.335140
H   45.611565    9.076767   50.954620
H   98.969086   91.367767   67.957039
H   11.133926   45.399132    6.339454
H   30.097515   99.340164   19.735859
H   33.371887   17.712524   89.889481
H   75.992020   96.457329   84.436577
H   56.724552    7.696444   25.628693
H    5.486111   75.310173    6.978314
H   10.392788   10.387520   77.486809
H   14.617873   90.217415   29.436859
H   50.511368   21.020931   83.520256
H   16.675451   38.988159   13.282024
H   81.425621   48.368237   21.229683
H    5.181534   10.070715   40.334137
