100
TIME:    3.789, STEP:  3789
H   61.087555   74.550751   95.677078
H   95.871590   10.177580   17.008619
H   44.884201   46.499519   78.865410
H   82.112579   76.543083   32.474674
H   61.233322   76.462563   62.969177
H   69.268440   97.103188   53.983963
H   54.387699   17.188435   86.757668
H   22.078369   16.399097   60.301487
H   60.487083   21.996613   61.584263
H   71.297432   70.787788   56.064888
H   47.811478   18.700901   74.773247
H   11.223778   13.613443   23.223654
H    2.244757   32.467758   48.532860
H   67.471870   93.397102   45.585255
H   26.590000   31.578220   68.640144
H   49.177353   80.329216   18.521208
H   19.418434   32.583553   18.315969
H   82.107994   10.441607   68.185730
H    4.283511   37.307022   62.979717
H   90.437157   25.352644   74.305382
H   39.432083   79.010681   54.401337
H   25.635468   49.113937   96.609955
H   35.155418   63.806526   23.942833
H   67.002342   82.124786   25.668964
H   94.068390   85.672638   64.522438
H   29.283152   14.710534   34.027916
H   35.348934   84.973160   75.150856
H   12.837380   33.297409   92.015038
H   93.558563   92.859970   78.064461
H   46.279846   97.061607   84.603485
H   65.178429   61.821560    9.605324
H    4.997035   47.824089   48.497337
H   37.249401   91.261421   39.139999
H   38.196304   26.483406   12.126862
H   86.586365   72.500725   55.450806
H    2.000078   82.131561    7.607905
H   43.213280   65.774399    7.023705
H    7.386863   89.609215   89.821007
H   85.137726   98.863091   77.130135
H    6.312347   57.470505   36.144756
H   76.300629   86.193695   31.612898
H   91.087387   81.910995   80.811951
H   43.877712   86.221451   75.156456
H   37.405228   76.272339   51.201805
H   27.988306   82.396393   80.345520
H   29.204350   35.186176   98.552742
H   71.336227   30.897163   61.837128
H   56.441769   34.395432    3.019791
H   75.784958   18.644981   93.328796
H    5.344150   88.408165   18.657200
H   43.255543    3.839662   93.367432
H   89.271515   12.148026   25.320934
H   87.470421   43.978638   82.810585
H   88.949333   45.386337   99.015472
H   39.107834   90.645691   32.573483
H   98.307114    8.548559   63.640305
H   36.457691   80.216591   16.353018
H   43.919182   19.063305   15.959007
H   89.107445   98.862579   20.599167
H    8.984736   19.022833   55.842415
H   98.713234    2.367164   18.976070
H   64.435600   92.674606   23.913635
H   31.295126   48.728813   73.647362
H    3.222791   62.405724   24.268398
H   82.714882   58.223728   48.422398
H   68.580910   53.910378   70.219055
H   83.569687   79.357086   49.995586
H   18.633812   34.234818   47.338711
H   45.746277   77.532959   22.592655
H    7.151945   38.718330   93.754578
H    1.713703   37.596672   16.696293
H   61.545746   25.775772   34.034313
H   59.941711   30.886784   64.601311
H   46.801922    9.603584   78.024773
H   44.853870   34.040455   88.629555
H   15.230227   50.412773   40.977772
H   10.971235   98.140915   58.059589
H    9.994441    2.966592   23.691751
H   43.208351   42.389240   59.959709
H   13.705698    2.596122   94.495567
H   85.021988   68.480606    6.448863
H   25.617516   68.972610   69.943604
H   57.529102   70.502899   90.783508
H   10.827768   36.392281   17.350731
H   67.836426   11.879616   80.451416
H   64.091553   48.231613    4.902803
H   20.213476   27.861763    4.217452
H   16.946562    1.937894   56.338608
H   34.317245   83.207008   97.201668
H   31.339769   53.387390   59.662895
H   79.084076   78.025948   13.478555
H   58.643509   80.456596    5.723840
H   28.335842   41.206352   12.013712
H   13.448524   43.063835   82.290993
H   91.079979   10.333469    3.154908
H    6.877489   46.107368   71.742104
H   61.849304   85.123665   19.280321
H   20.774549   48.498749   95.407524
H   28.214043   53.183186   27.668358
H   74.559532   81.400856   32.733299
