100
TIME:    1.119, STEP:  1119
H   41.648598   19.403206   98.121536
H   70.143211   65.417183   48.586391
H   98.990417   54.409206   10.200974
H   81.664429   86.546654   78.827751
H   85.148270   62.450310   35.363808
H   10.664288   99.995796   89.563866
H   94.324089   36.898113   77.960030
H   31.935104   85.409683    5.450514
H   26.120842   78.706055   29.649626
H   44.260033   32.450539   51.510376
H   96.168381   11.267806   31.962049
H   13.130070   79.780479   13.277533
H   72.081772   94.006172   13.909707
H   99.675697    1.627162   42.396954
H   94.111595   70.070862   96.982315
H   56.531845   13.860317   40.153793
H   34.100594   55.998245   75.237694
H   25.056740   40.283798   60.752731
H   62.688911   25.296457   22.316202
H   62.368034   82.051376   92.519402
H   97.873596   44.817833   26.873020
H   69.644829   45.576889   23.974262
H   70.803764   85.521461    0.333248
H   15.074341   50.102390   23.967567
H   89.562614   97.429115   44.818657
H   41.528072   94.267151   84.288879
H   65.587204   95.960953   22.171522
H   38.123032    8.670533    3.760429
H   35.502686   50.616245    4.277249
H   43.900234   63.144669   72.345970
H   60.120029   22.390383   20.863842
H   36.411411   21.596375   95.672661
H   49.179134   86.611214   98.605309
H   25.382393   71.173073   24.609228
H   52.957329   74.332283   92.868546
H   69.847534   72.387589   16.794012
H   87.125603   63.556007   96.638252
H   17.741539   38.473286    1.407092
H    0.413274   56.620644   34.876160
H   57.795387    7.425802   26.074320
H   58.768898   94.578148   68.707687
H   31.051842   62.081116   55.372593
H   20.879438   70.210251   82.299446
H    7.904026   31.524080   90.143929
H   59.589630   87.740891   51.865204
H   63.650837   84.259987   87.715645
H   47.895679   86.104431   37.185005
H   56.299175    6.904577   37.815289
H   97.741753   39.773338   99.835587
H   49.358799   47.781292    5.401392
H   43.459248   61.611366   65.215424
H   59.514046   59.905010    0.600490
H   32.091713   28.497070   37.879936
H   50.777393   88.947136   81.195328
H   51.677071   56.603146    9.901596
H   94.966354   11.355930   54.533401
H   67.190109   57.258751   62.413658
H   42.735291   71.211891   84.732132
H   78.529716   86.048630   25.576763
H   85.176224   13.797369   31.782555
H   30.288511   26.533112   27.149849
H   59.195648   17.529861   44.724396
H   50.134583   30.846577   56.790382
H   19.878580   47.881569   96.757744
H   76.738258   71.472252   99.771111
H   32.603249   86.644325   12.349482
H   97.788651   87.049316   21.087894
H    3.068696   81.533615   19.697271
H   12.672041   69.382126   90.050392
H   53.053497    4.424886   99.376831
H   86.498436   19.264292   48.726780
H   81.700150   14.388205   38.549522
H   34.031433   62.954182   33.055904
H    5.561780   78.567734   36.703102
H   16.123775   30.235903   86.225395
H   52.114704   79.290672   20.635483
H   68.553764   29.559332   10.834368
H   84.552979   77.552818   76.238983
H   15.188425   50.224461   30.165707
H   44.647720   48.011696   24.518219
H   32.779896   40.858227   46.868298
H   25.282269   51.535477   93.206985
H   88.599464   25.933668   36.479008
H   27.146864    7.915871   61.221748
H   97.842850   78.890427   39.277885
H   25.537067   50.158497   19.490196
H   41.890205   21.992516   76.901291
H   73.968857   15.704651   84.110008
H   78.904732   31.867449   19.044857
H   67.403061   63.238731   64.216820
H   69.816628   33.854816   57.092968
H   61.081623   79.665749   54.842819
H   57.080971   61.157875    5.483495
H   55.384125   81.108864    2.267588
H   37.246143   49.497025   41.799278
H   86.346375   51.542656    9.651186
H   73.781479   31.897398   72.834305
H   10.973737   25.765289   38.132362
H   55.405418   41.673862   51.317173
H    8.735123   49.961628   89.909981
