200
TIME:    0.626, STEP:   626
H   21.332129   61.193943   21.939938
H   31.404718   38.513321    5.567428
H   10.047460   86.033310   64.360771
H   30.854015   81.485420   34.405891
H   11.111882   93.512360   48.108749
H   77.061340   42.338348   54.124313
H    8.951674   55.030251   57.122692
H   11.538671    5.554312   11.371093
H    3.104243   81.719406   38.302952
H   97.273300   69.491966   80.847084
H   25.647768    2.839886    5.159630
H   32.373962   52.325737   31.134268
H   20.648067   99.818398   45.471428
H   86.159386   54.835491   60.866085
H    0.985756   74.916039   42.028847
H   18.049221   10.062183   45.996170
H    2.365769   25.796787   96.691017
H   27.396404    1.723243   36.648335
H   77.868332   15.727417   48.166107
H   91.284294   74.403770   22.507450
H   62.717476   96.027039    8.156235
H   81.435677   63.568550   55.699768
H   83.446297   59.734924   39.874352
H   16.784138   91.578392   90.375710
H   20.024048   28.228331   31.636837
H   18.341566   79.466888   94.207878
H    6.370852   66.541969   64.601730
H    3.368986   86.052757    1.746950
H   27.326168   44.797066   36.078117
H   75.606506   31.104788   85.273514
H   12.857538   67.575783   16.666740
H   24.906773   72.553207    3.106619
H   17.796654   17.291334   77.894012
H   83.651375   63.999046   45.037170
H   29.464624   73.851181   31.282797
H   20.452469   41.120979   83.902733
H   97.343353   66.097748   88.852760
H   13.822005   54.740154   97.812210
H   38.784317   32.578510   53.011734
H   86.380951   38.101162   48.618256
H   80.619164   87.192078   14.336545
H   32.552139   35.012703   28.385372
H   69.751785   78.914696   64.661339
H   36.421341   81.981422   32.553478
H   41.965767   88.071991   58.293510
H   35.627838    3.792915   46.885899
H   87.248169    7.301046    4.642069
H   80.718498   65.544716   33.771072
H    2.008325   14.104048   61.444630
H   48.304127   19.543440   89.382370
H   69.025894   65.610451   12.571292
H    6.382704   42.341778   71.840584
H   62.587318   83.381935   12.973583
H   16.661739   90.329422   87.419304
H   60.860336   67.800415   78.289726
H    0.357409   62.840645   91.287933
H    4.328890   18.206154   45.513996
H   71.625839   67.552643   98.336388
H   20.036177   81.934067   16.462315
H   34.175686   93.821693   59.858627
H   49.169388    7.845442   30.958763
H   96.873833   17.339289   52.025200
H   82.081512   33.202621   71.862366
H   33.478569   65.703041   12.285797
H   77.553375   81.833496   33.713856
H   23.597849   31.557528   39.801590
H   71.756691   15.019902   93.810036
H   95.179832   92.327522   94.913689
H   30.252562   11.069484   57.094139
H   43.015003   48.357716   50.961979
H   58.295830   83.268326   83.606323
H   21.292053   13.675841   42.062840
H   89.744766   32.336346   86.570389
H   20.440783    0.480147   71.810097
H   83.845169    7.120020   49.463013
H   63.070366    5.449114   60.355125
H   93.796082   44.320061   66.685646
H   12.258360   12.998789   34.768288
H   14.465199   46.890537   26.389278
H   62.459431   88.514191   75.955841
H   59.750835   23.578257   95.403015
H   43.609425   61.648510   75.924309
H    9.493741   17.900396   78.985847
H   12.086630   74.481636    6.432083
H   25.162682    3.405630   46.843193
H   35.541924   72.268799   19.747536
H   53.155304    3.588448    2.656268
H   72.121498    4.177856   26.001266
H   77.500504   72.996735   78.560913
H   21.510773    3.348927   50.618893
H   25.062130   38.225002   79.037582
H   81.366692   91.922150    6.790253
H   65.596527   12.508732   84.736343
H   42.718945   80.565895   79.703529
H   34.905586   51.704811   84.016243
H   53.286903   36.339462   10.912792
H   84.541710    0.928182   14.953186
H   96.283577   34.436531   52.248249
H   28.271416   65.911316   54.249176
H   73.915962    4.199493   27.344645
H   27.088163   91.098877   87.116005
H    4.925601   82.496399   63.735405
H   31.180815   23.063192   35.896717
H   40.423576   68.652161    5.491096
H   24.827055   22.400063   37.602085
H    2.704586    7.874426   25.818853
H   83.943474   34.889683   54.462814
H   62.476711   49.094818    3.815631
H   82.606178   35.217239   17.797657
H   16.766428   22.678499    7.426447
H   52.273102   92.712486    1.067430
H    1.493112   73.051941   94.907967
H   50.389870   84.753922   85.539330
H   61.916618   11.075665   65.000061
H   50.969063   98.042084   13.238347
H   98.285667   94.505653   96.347855
H   16.704624   13.877976   88.679977
H   38.812725   45.995800   26.262749
H   33.521469   72.205688   64.462296
H   80.969200   54.378841   63.742073
H   44.583260   24.324482   74.871284
H    1.634024   18.335972   59.542404
H   41.542427    5.542667   35.480061
H   98.390305   53.428635    0.961694
H   65.366295   99.394936   80.046791
H   61.863979   72.913239   18.078463
H   85.792000   50.992233   56.147446
H   66.985512   90.597374   38.262630
H   97.217918   38.511372   76.093712
H   86.454437   22.319798   73.077675
H   64.190666   71.403351   18.162579
H   66.883980   89.879807   18.429813
H   91.177315    1.374602    0.246556
H   81.993393   22.899632   54.457882
H   23.494801   94.390625   38.679474
H   52.077271    1.131455   77.994911
H   69.531769   87.548134   74.554436
H   94.510796   52.168758   77.099388
H   56.402618   49.731720   71.458794
H   43.657036   90.577446   84.731995
H   69.727417   51.717369   27.378815
H   39.468491   52.739075   55.245174
H   42.596970   63.865673   86.364639
H   40.025734   12.555159   84.520851
H   58.445751   56.965393   61.690586
H   60.083237   68.625870   11.359268
H   53.860588   95.087395   44.518063
H   32.112480   59.050301   66.610374
H   75.504364   48.676132   94.107193
H   21.766506   92.889015   75.551971
H   62.614723   67.865402   48.430172
H   50.036110   96.428963   36.055962
H   94.107529   17.405407   89.914551
H   20.113613   10.002842   66.413841
H   28.918896   64.072983   67.736366
H   74.960884   44.486012   65.936691
H   63.351727   72.459778   85.326340
H   51.533974   30.466675   18.767326
H   94.715248    0.279906   88.289726
H   59.352077   41.194244   93.054153
H   57.747566   68.727547   73.152748
H   25.480642   21.055946   32.199989
H   81.834740   17.740425   37.071552
H   25.443430   31.519176   54.684364
H   55.258278   35.186012   13.617268
H   18.564121   52.157398   60.191769
H   68.253090   91.323677   56.313702
H   23.969410   48.494751   63.974323
H   99.317909   26.914927   35.945473
H   44.088150    7.546794   86.056610
H   71.990845   10.224254   35.943680
H   32.828224   51.109787   58.643456
H   45.131020   60.868023   79.563065
H   66.472794   65.305244   83.194855
H   53.497253   92.132828   81.081718
H   12.824861   49.745872   23.657072
H   31.452374   64.979355    3.054842
H    5.151048    9.568977   69.815933
H   65.730110   12.406165   64.620239
H   67.938789   58.595695   91.830208
H   74.370560   99.021828   32.744576
H   27.013369   30.577236   83.707733
H   47.862385   89.760605   13.714142
H   59.886986   25.934635   91.390816
H   90.514648   71.592361   76.806564
H    7.341192   39.480881   85.886086
H   44.792725   97.912834    7.817987
H   71.876724   83.574898   39.033188
H   95.439796   62.894726   70.954941
H   56.632851   56.173565   70.579849
H   66.259872   18.253586   76.544991
H   44.488571   95.419098   19.707800
H   12.674397   26.707104   66.648857
H   28.360037   78.936142   41.092358
H   71.648239   37.014149   20.553638
H   76.270523   11.330614   24.277985
H   12.027064   96.084648   16.495222
H   17.691454   89.734596   36.080719
H    6.765912   12.691954   60.753792
H    3.981810   21.915138   92.386047
