100
TIME:    3.538, STEP:  3538
H   78.061920   97.568787   95.906876
H    2.853714   96.568893    1.176011
H   40.569756   28.441463   81.810646
H   82.070450   86.883965   46.233791
H   63.481506   56.343807   69.775009
H   73.159676   97.375114   29.125746
H   67.542198    0.239300   67.129143
H   41.806473   94.684402   83.346642
H   66.657143   46.129166   77.383125
H   78.156883   67.183800   46.235306
H   71.158890    8.601658   98.951759
H   20.804413    1.032511   41.089928
H   18.210560   47.653534   73.480003
H   79.900078   94.170753   26.483349
H   23.536568   53.998764   80.704506
H   59.269287    2.282568   39.356789
H   39.602303   15.982608   95.466446
H   76.746056   22.647896   76.887390
H    0.374302   26.776560   49.756794
H   97.200859   30.682985   57.216118
H   54.326782    3.997605   61.212914
H    1.571854   48.780731   17.984863
H   38.506630   65.847893   31.124958
H   90.322945   79.114441   44.311275
H    3.045617    5.577461   62.668739
H   30.435011   22.189398   57.553421
H   56.993931   95.405960   70.171913
H   34.015919   21.581573   83.719353
H   88.100876   70.087051   89.929665
H   36.655167    3.274028   64.649414
H   55.299282   39.314823   29.463646
H   89.148781   54.758224   71.733681
H   19.569082    9.625656   16.527937
H   27.590759   49.486122   22.700413
H   92.825363   91.474327   40.167366
H   80.173241   62.414791    8.474324
H   19.139580   74.966293   87.245964
H   17.760696   94.201332   72.107460
H   95.731384    4.331507    1.454138
H   29.953709   80.967819   16.396345
H   93.455002   77.580124   25.699446
H   13.645897   70.647095   69.019516
H   41.715702   84.716278   57.026180
H   53.433594   72.067047   26.661154
H   49.759869   92.300659   58.867123
H   32.442577   30.398731   97.533974
H   69.375290   17.246243   59.426170
H   56.428364   31.810282   87.489342
H   68.446762   39.432068    3.340744
H    0.079880   84.589699   36.211803
H   43.274693   28.072750   90.720932
H   77.073105   35.439087   41.799320
H   82.265511   42.523254   97.387398
H   94.763206   49.482475   87.939240
H   59.092545   68.646423   30.438982
H   97.993057    8.812826   72.184937
H   20.546137   87.459038   92.480598
H   62.609367   42.767426   22.424927
H   69.310402   88.257431   39.869022
H   25.547585   99.729462   62.981453
H   82.880196   14.039433   38.545231
H   73.344078   95.010880   35.271370
H   14.254693   65.856377   90.859184
H   85.987785   61.040344   31.083805
H   72.753166   78.270271   25.047892
H   84.000313   66.388374   55.377975
H    3.707756   70.678406   37.877605
H   35.972023   19.879335   35.339458
H   33.235725   95.568222   38.335690
H    2.066767   26.093328   94.283112
H    9.684320   54.674446   19.707596
H   82.242599   34.105927   15.657119
H   76.307114   43.301586   71.035637
H   52.328548   25.487370   92.938622
H   32.753124   33.682354   69.602333
H    9.296189   34.325043   57.865963
H   88.182472   19.895958   53.620670
H   98.201996   19.378977    9.829439
H   31.172712   43.126507   57.158096
H   26.015266   16.266205   16.119217
H   80.111984   65.883896   91.447159
H    6.783940   67.333389   90.931763
H   41.648190   66.312927   66.876923
H   93.559097   14.913149   40.274933
H   80.057816   27.580395    4.783051
H   69.867126   39.010994   87.472565
H    3.449754   46.111504   92.248718
H   12.906916   22.033325   58.948723
H   29.107975   97.182518   99.254524
H   53.532421   63.714867   50.691223
H   68.812134   64.471733    8.177896
H   40.070137   61.582329    0.940879
H   12.247043   33.674744   92.603416
H   89.188728   27.838108   65.366417
H   95.419319   32.817226   97.387260
H   86.145859   56.019295   84.706505
H   81.772736   70.719200   33.716270
H   19.853445   46.361633   99.425148
H   40.171165   52.101223   48.692902
H   58.968403   87.842842   56.913727
