100
TIME:    8.261, STEP:  8261
H   58.664299   64.448051   91.582840
H   72.327927   52.516666   98.987076
H   21.769938   68.233398   26.368298
H   82.863190   92.296440   87.349190
H   21.173414   34.912830   41.714920
H   99.909790   92.258339   96.860268
H   20.011543   19.159708   36.474125
H   70.587982    3.284126   49.696785
H   50.556725   92.031113   80.087158
H   49.122688   35.000721   31.172199
H   31.836929   98.642059   44.008011
H   40.542610   37.771694    4.902466
H   16.973320   61.957596    4.151978
H   46.045570   79.613167   85.905708
H   80.944099   32.119583   53.628387
H   69.366257   89.191612   47.305939
H   59.806557   28.371853   25.419775
H   77.721130   92.858864   13.159702
H   73.931107   24.912037   98.584671
H   69.948196   30.382677   78.779915
H   74.057274   33.808781   33.026691
H   54.370457   55.050583   15.777786
H   75.445946   27.438185   95.992554
H   51.492393   35.653778   93.539948
H   34.122749   31.021698   97.549294
H    8.656109   82.569199   13.485121
H   49.724136   99.075943   63.882755
H   35.502663   42.035252   39.837311
H   90.798042   98.594864   66.670158
H   17.756733   86.379471   40.114014
H   41.178097   62.834564   55.795052
H   87.361961   24.269688   34.501900
H   52.251308   64.068260   42.013077
H   27.149311   16.651222   23.728121
H   75.362175   34.196373   27.657965
H   90.752594   32.466606   93.454994
H   72.135735    1.998487   59.399807
H   22.550411    7.770103    5.398043
H   96.371361    1.425567   43.759804
H   85.099396   38.816170   87.992981
H   70.670776   39.636719   36.970058
H    4.021770   73.998672    1.699916
H   82.381378   13.043100   98.174751
H   51.850384   51.304512   88.452057
H   40.075172    5.957458   63.027313
H   71.489555   20.479031   16.722513
H    6.277552   74.099251    4.763139
H   56.691830   80.455612   79.721428
H    6.509679   48.273491   14.938776
H   99.181885   56.471142    5.922791
H   42.934353   72.097191   40.510727
H    6.612937   97.179062   31.753830
H   80.227257   69.908813   23.086153
H   85.386200   72.421295   96.352249
H   83.041542   82.559647   70.609848
H    3.884825    3.843953   11.402863
H   19.963982   51.178856   41.677361
H   10.924947   96.737389    0.769621
H   41.802441   87.825020   77.289688
H   13.878791   62.757290   28.648094
H   80.810623   94.397217   70.302559
H    5.718910   51.049850   21.570004
H   34.899639   43.567535   66.988892
H   10.307438   86.764206    2.850974
H   60.218208    1.051121   64.879913
H   93.862770   31.594444   34.639149
H   24.773245   33.966923   65.903244
H    9.722033   89.992302   61.126175
H   68.630707   56.203560   42.117729
H   97.801353   63.571064   84.322159
H   59.707653   33.322578   63.056984
H   92.994339   77.302147   61.572872
H   68.358459    9.689375   49.939350
H   48.349979   26.581516   12.313246
H   60.411697   40.479092   27.656103
H   20.951204   37.025345   40.068794
H   17.057796   10.789322   37.251793
H   20.095007   10.557354   70.666748
H   57.656578   29.253559    9.849030
H   94.398613   59.003746    9.228674
H   72.537956   14.746194   73.731613
H   61.194023   98.044342   95.889122
H   40.401154   45.271275   16.678593
H   18.493378   19.070810    8.903130
H   50.088470   32.145512   46.941658
H   61.167866   12.493350   15.452302
H   18.888369    2.710199   17.459679
H   88.888634   44.020920    9.924278
H   27.124596   34.212440   60.626472
H   35.955311   69.397842   19.528349
H   62.096851   19.501774    7.919330
H   89.529243   16.785667   90.933083
H   14.999378   75.389610   57.840393
H   45.659180   14.358144   83.825356
H   13.763088    9.758942    5.916070
H   76.246307   69.514160   40.757652
H    6.883305   41.760445   62.091042
H   22.331675   95.214546   13.041121
H   15.177852   72.475197   53.092838
H   52.332760   66.640274    1.931158
