100
TIME:    5.624, STEP:  5624
H   36.993813    6.272623   93.997086
H   45.153450    9.619164   32.716343
H   76.431580   78.517273   57.329166
H   82.420578    0.940543   31.891907
H   44.797394   23.545824   13.215841
H   40.809155   95.115196   35.709759
H   58.214993   41.097485   30.257204
H   77.850983   75.148849   91.816551
H   15.379280   45.568771   46.076584
H   21.151167   97.135674   27.919401
H   77.124252   92.536575   98.017662
H   41.189308    5.592746   92.607018
H   85.187851   21.496231   66.192802
H   76.614143   87.741127   85.228874
H   48.907600   67.669144   80.432404
H   75.394775   19.833572   66.199921
H   71.858467   53.953617   85.363251
H   21.333273   21.173859    4.569376
H   32.863949   14.285960   59.654621
H   40.995888   86.381386   99.240730
H   30.540581   96.329773    4.599701
H    1.558701   51.549927   40.342712
H   10.654761   48.882591   71.440933
H   96.507042    4.107638   89.386002
H   28.437057   40.148811   78.074379
H   20.908957   60.401291   61.561172
H   77.115631    8.693146   11.554411
H   58.004185   18.948997   52.674004
H   33.459709   59.345188   91.323273
H   16.642632   51.645805   30.480007
H   37.394997   26.370781   64.425957
H   20.859867   97.128693   78.622215
H   66.505363   57.003578    4.451291
H   15.728684   58.316673   34.820152
H   40.974564   33.788925   67.189240
H   61.522251   25.924728    1.744793
H   19.214123   98.571411   51.614483
H   31.542225   56.034039   19.312092
H    7.680251   58.879265   99.305305
H   33.475765   85.683311   80.519493
H   50.890854   49.154678   74.844704
H   26.254040   63.658318   67.072929
H   59.683643   97.225403    7.701981
H   20.232784    7.041593   30.621161
H   68.814461    9.998862   37.371685
H    5.528486   70.186020    6.009299
H   85.672165   30.690842   79.450768
H   56.539768   53.295349   16.559134
H   29.425293   66.669128   20.129860
H   43.829983   16.332228   90.314621
H   43.115543   26.682848   12.713052
H   78.448616   41.874340    4.855782
H   25.530445   54.618591   76.236717
H   46.451302   15.440534   79.988365
H   93.003319   51.465961   48.183414
H    0.600406    6.617821    1.172571
H   52.787994   27.268822   90.876564
H    7.281209   45.770485   68.693954
H   33.829552   76.396751   79.726097
H   87.892990   60.068562    3.650642
H   14.466625   17.030308   75.904045
H   99.311165   75.594681   40.886604
H   55.874722   23.511534   47.815887
H   29.229187   72.399445   74.449799
H   55.550346   11.664215   19.307756
H   55.854729   62.687370   78.718102
H   36.344879   42.798229   38.589615
H   91.877480   39.180393   35.062321
H   37.201870   45.681557    7.504249
H   44.326462   31.012581   89.890594
H   43.445854   12.743774   94.683601
H   10.243023   64.875336   68.385880
H   40.296448   40.119629   17.547691
H    6.405025   93.476280   68.994591
H   33.327236   36.658443   27.735764
H   58.615974   68.019707   17.505964
H   77.578178   39.095165   90.511452
H   96.206070   82.981224   25.031885
H   31.204212   36.999264   80.430382
H   23.717831    2.653087   36.408539
H   20.924799   87.464523   16.122507
H   63.307335   80.943298   16.493143
H   73.606194    1.172439   65.545914
H   37.072159   93.416672   49.750919
H   78.486809   97.099648    2.568747
H   21.853764   15.632216   32.330963
H   42.768974   94.442162   91.717468
H   46.478386   55.036190   37.265610
H   72.397079   81.037132   82.193733
H   69.102325   77.889816   25.262342
H   54.179924   77.110626   52.230389
H   94.417946   18.457918   40.685875
H   45.962646   96.266609   53.917133
H   90.805794   54.374706    6.016828
H   59.356117   45.966473   45.319004
H   58.440933   73.646149   76.961929
H   16.195852   90.430672   13.747956
H   27.421709   64.732101   65.977806
H   40.798584   61.093151   73.968697
H   88.539551   34.313892   55.963673
