200
TIME:    0.061, STEP:    61
H    3.970844   63.069057   12.278788
H   26.368851   30.264746   82.630493
H   21.889505   61.303352   36.531487
H   11.808790   74.881569   49.180500
H   17.110731   79.192520   56.232090
H   95.441772   57.673336   70.848198
H    0.765882   55.431137   46.186680
H   98.877426   81.156738   31.426071
H   80.159058   90.189751   52.086121
H   17.162365   77.406242    3.132730
H    5.954481   90.770332   87.305099
H   30.037613   37.245075    4.213245
H    6.780841   81.067253   68.628014
H   12.864639   52.451725   33.640285
H   28.264118   70.566635   43.419018
H   34.517899   33.341621   58.184414
H   75.786743   99.335075   24.122778
H   40.812801   74.562004   46.707138
H   59.069775   36.182102   39.848789
H   89.486771   82.162865   44.409649
H   55.936890   67.822731   34.041271
H   94.014030   41.972404   77.472649
H    0.365460   63.842934   53.431213
H    4.845245   86.473732   92.156082
H   95.466248    5.504713   51.797550
H   18.809267   54.392906   12.868498
H   95.429710   55.205067   41.884827
H   90.402374   62.745182    0.260278
H    3.529509   61.970528   39.386509
H    1.138305   15.969166    4.817616
H   13.595191   43.970890   15.975965
H   35.181107   59.311020   89.196136
H   31.448349    5.133861   70.992729
H    2.351063   63.382629   35.161568
H   56.578449   97.197433   35.580654
H   38.908337   54.003231   77.423889
H   81.126846   78.292458   84.611122
H   41.769173   40.125038   23.215628
H   59.695076   52.810349   40.452778
H   91.799385   40.424580   70.688568
H   80.452072   13.587919   95.582741
H    4.429769   46.860409   45.138783
H   79.924820   91.893936   43.681606
H   37.680038   54.540836   12.346456
H   22.661232   70.833870   37.904335
H   43.578754   18.497030   40.741127
H   76.600967   34.981777   92.254097
H   94.473648   65.553337   54.082657
H   80.157829   35.544964   61.037277
H   68.522552   16.993715   13.285506
H   82.466370   72.761749   34.962662
H   27.980764   32.617046   59.692524
H   47.349834   99.544830    5.586371
H   25.070658   78.406281   79.052414
H   84.775589   80.365837   96.562393
H    7.600307   76.759781   72.786804
H    5.941327   16.068092   51.574711
H   65.453049   54.418224    8.534183
H   31.958241   71.019608    2.797167
H   47.243294   96.994301   70.303230
H   50.999241   18.868744   47.466305
H   86.720558   16.000845   47.694374
H   66.515907   21.498356   90.923874
H   19.789038   64.896957   99.671028
H   68.470924   73.410568   10.609872
H   45.761250    9.606992   29.645798
H   92.861427   26.937700   82.136909
H   98.343819   91.042961   83.727661
H   10.155587    3.434319   64.245438
H   46.267357   38.510132   50.992153
H   58.543690   73.496178   68.493332
H   37.170906   28.526878   46.017822
H   71.812637   22.568508    5.489334
H    2.033803   12.899163   55.361946
H   76.965439   97.973747   76.029289
H   48.789322   25.396202   64.047134
H   96.184158   23.286451   74.677513
H   33.185127    2.710428   54.088432
H   10.169678   21.718304   38.902973
H   70.973274   91.665245    2.750646
H   35.770924   33.127205    3.790602
H   18.765810   71.809113   93.390892
H   11.698078   11.702821   95.517029
H   30.511246   56.006371   88.017426
H   45.282444   97.431046   62.854946
H   19.624166   92.037247   31.509029
H   27.832640    2.411113    1.360964
H   76.820061   25.206383    4.690742
H   60.212521   71.605461   76.514908
H   24.340687   78.023895   56.834789
H   48.746094   33.347549   81.550667
H   85.302277   86.964951   94.462051
H   38.756401   18.880888    0.827806
H   68.054886    0.864549   64.189651
H   20.589197   59.347519   60.484634
H   76.684883   23.707226   37.477692
H   76.877449   20.470400   90.620064
H   11.815514   25.657198   46.898785
H   41.073921   71.571144   52.246899
H   64.092087   95.018524   27.206705
H    1.879975   75.477234   60.510647
H   83.916069   73.948463   66.851974
H   19.468893   43.711472   28.001291
H   13.274624   67.608994   83.054100
H   25.576023   29.825085   19.284157
H   80.336685   35.536812   52.271152
H   57.178913   27.874166   57.092285
H   65.805489   27.401684   25.663120
H   68.247543   42.349140   90.477028
H   98.616806   30.556135    4.661192
H   44.839458   97.622269    0.669911
H   78.806480   58.843395   88.472229
H   60.202969   78.197487   97.828873
H   63.830528   23.256365   79.569916
H   69.823662   74.514786   33.048954
H   21.343464   11.033941   70.859230
H   39.934490    5.922141   82.093369
H   41.679279   18.185913   37.556541
H   12.064420   50.993191   92.386414
H   66.058807   43.102291   42.665356
H   38.686348   20.569942   93.385345
H   26.012596   31.720409   42.922855
H   27.920904   29.371944   18.719116
H    6.714575   73.760651   25.703760
H   82.271278   13.381539   98.733376
H   41.164440   57.454483   28.987534
H   99.835960   48.354141   77.967743
H   79.344025   86.166069   33.490788
H   90.264908   58.963051   88.969498
H   59.069145   24.997763   63.452087
H   41.383240   91.576996   96.570763
H   88.570648   84.276016    5.105784
H   93.022255   73.885910   96.043633
H    9.697861    8.413480   47.503597
H   95.583382    4.606684   64.642265
H   67.125603    1.856580   86.318695
H   68.596367   86.108391   46.427719
H   89.691536   69.809212   86.026657
H   41.634476   41.830376   71.592422
H   43.350983   17.675024    0.431287
H   41.755878   68.333168    9.127903
H   65.478699   35.572079   42.074112
H   60.759716   53.466331    5.421704
H   65.915245   33.007366   75.158211
H   31.888096   75.703606   43.215321
H   39.381542   58.891384   38.419109
H   40.497704   97.561684   48.563568
H   47.540146   80.081757   69.851952
H   60.399998   72.265182   99.723915
H    3.727586   86.675194   96.686829
H   82.529579   58.269985   52.695518
H   26.252590   12.062599   53.761784
H   67.860237   38.531696    9.748631
H    5.178045   97.033623   80.375900
H    6.514493   49.151802   57.514545
H   58.188309   43.085064   48.553928
H   57.437572   55.515854   78.636276
H   43.501156   39.531883    5.530477
H   20.574331    2.408798    9.242954
H   65.685944   64.247375   71.371796
H   52.197659   91.681534   88.175217
H   52.008389   23.983927   37.094685
H   57.514294   42.374020   37.306480
H    4.704310   14.921145   78.857422
H   60.668091   16.014582    8.065743
H    8.829690   70.134056   63.280319
H   77.982132    0.462082   50.324112
H   23.475845   22.788441   40.610828
H   91.640717   28.752323   37.279606
H   18.304249   11.810524   92.419067
H   82.784607    3.505094   35.991096
H   52.346657   72.095154   56.908436
H   34.214405   85.145645   95.460587
H   73.425774   78.835190   70.097824
H   79.757477   96.383087    7.647445
H   95.380592   46.693962   23.115013
H   37.256607   47.329449   79.420044
H    0.143567    9.030151   62.591351
H   80.179268   25.540735   71.228401
H   94.815430   52.534981   83.859894
H   84.685844   78.774902   45.881153
H   15.617217   29.887539   63.081478
H   73.875549   90.351486    2.527265
H   47.583321   24.888824   70.605064
H   83.208168   96.098167   79.134293
H   95.513054   34.713348   83.058327
H   25.119488    7.590734   95.299271
H   99.020622   59.642792   19.263281
H   11.802088   60.375175   64.497650
H   46.358517   59.247028   63.441486
H   39.269180   36.946537   80.579720
H   49.120319   80.064713   26.904360
H    0.124467   13.265550   53.705814
H   38.230930   56.386623   29.705669
H   91.037354   62.250603   22.401812
H   74.891129    9.944215   32.018761
H    8.271447   80.678535   97.425064
H   34.111774    0.963582   52.014881
H   14.300316   11.111038   86.022575
H    9.874766   41.056961    0.235703
