100
TIME:    1.923, STEP:  1923
H   87.277985   45.672379   97.385452
H   47.778526    9.006395   99.302574
H   12.809477   12.252509    0.761432
H   81.799377   53.422874   34.756786
H   77.946915   26.894444   13.564564
H   98.196907   99.124763   69.187614
H   52.185001   91.187370   40.833961
H   68.742287   54.965061   31.630524
H    6.356987    1.404690   79.041573
H   22.289282   43.994789   82.992668
H   21.382248   43.618473   54.515781
H   82.445053   20.080477   56.047630
H   20.940704   45.363289   33.998573
H   59.865822   99.148628    3.580306
H    3.890298   98.257446   58.337006
H   24.205490   43.536781   73.415787
H   69.461136    9.168068   48.438484
H   42.238167    1.184995   32.879684
H   75.213966   59.027504   64.671799
H   40.708763   64.974228   47.259407
H   50.163086   64.777588    5.051197
H   46.737675   46.638077   55.515816
H   60.069206   78.982582   77.330597
H   40.374001   59.745090   64.256760
H   60.806267   33.662628   50.750267
H   37.841518   70.307617    8.929837
H   96.256096   62.542469   38.126141
H   70.283981   46.198849   30.336008
H   52.984680   23.561491   66.271049
H   74.729881   43.245865   36.261135
H   91.747108   94.490219   57.243237
H   87.176666   99.384041   21.242302
H    5.810602   27.786057   71.035980
H   59.352669   97.491379   90.738739
H   32.972649   13.556220   41.825172
H   39.752361   35.545567   14.029103
H   64.238770   34.112648   59.990177
H   84.509895   23.757740   58.141071
H   64.271500   39.457619   57.817421
H   82.068016   32.158161   89.331863
H    3.826363   22.166353   87.649582
H   58.792908   98.161827   93.145966
H   27.804762   75.031601   40.373581
H   56.562523   45.000443   68.753952
H   89.849525   56.017216   20.666529
H   53.278187   99.595070   90.978951
H   56.385181   29.475786   44.055122
H   56.342113   15.182455   87.562294
H   21.242041   73.185875   67.766861
H   66.220451   60.018688   49.166744
H   43.397907   83.990059   73.692657
H   98.587837   85.299210   47.821316
H   48.770149   33.158936   91.184776
H   32.160603   75.832573   16.673170
H   87.669968   27.085089   16.724012
H   95.972336   10.510967   27.163345
H   18.162218   34.059837   38.880821
H   82.866547   95.283661   64.023636
H   41.939323   20.020033   63.854828
H   32.120525   75.596603    8.915355
H   81.004807   89.143745   64.462303
H   30.660271   10.045120    8.343768
H    4.668062   76.018974    1.632773
H   75.089111   52.255135   74.932854
H    8.648471    7.256754   74.647049
H   83.212410   46.674965   59.888119
H   33.283157   14.846509   59.904919
H   47.531075   27.516060   58.133121
H   52.745552   11.611801   39.625671
H   69.341370   44.864845   97.683838
H   60.968590   64.559898   39.084080
H   15.407262   87.704330   97.414360
H   81.608200   23.187244   12.439419
H   87.869713   27.687944   88.918953
H   54.885986   31.379900   47.174664
H   71.121773   30.818499   66.534843
H   41.550972   59.875107   25.058001
H   22.326366   24.980009   20.639515
H   53.728554   47.868992   39.133034
H    5.217790    4.222780   55.252998
H   48.513691   49.175976   94.922310
H   85.607941   56.786209   25.977705
H   39.471027   39.353546   13.056032
H   82.455391   76.715187   87.785095
H   58.695450   28.599304   61.339157
H    7.030730   79.690605   75.322166
H   95.587532   63.535156   15.239485
H   86.911667   51.334488   75.751503
H   95.589302   87.102943   12.466930
H   96.319016   30.157890   92.960899
H    2.719634   77.267242   74.071976
H   20.569811   40.133434   70.161964
H    8.667698   85.251633   67.683640
H   33.093090   29.876406   56.475639
H   23.344513   77.479340   60.274986
H   52.753510   19.794081   68.123459
H    9.963912   78.037590   26.595963
H   13.925740   32.610870   25.267689
H   17.105709   45.139591   83.970078
H   58.666153   29.308739   12.473242
